*SPEF "ieee 1481-1999"
*DESIGN "user_project_wrapper"
*DATE "11:11:11 Fri 11 11, 1111"
*VENDOR "OpenRCX"
*PROGRAM "Parallel Extraction"
*VERSION "1.0"
*DESIGN_FLOW "NAME_SCOPE LOCAL" "PIN_CAP NONE"
*DIVIDER /
*DELIMITER :
*BUS_DELIMITER []
*T_UNIT 1 NS
*C_UNIT 1 PF
*R_UNIT 1 OHM
*L_UNIT 1 HENRY

*NAME_MAP
*1 io_in[0]
*2 io_in[10]
*3 io_in[11]
*4 io_in[12]
*5 io_in[13]
*6 io_in[14]
*7 io_in[15]
*8 io_in[16]
*9 io_in[17]
*10 io_in[18]
*11 io_in[19]
*12 io_in[1]
*13 io_in[20]
*14 io_in[21]
*15 io_in[22]
*16 io_in[23]
*17 io_in[24]
*18 io_in[25]
*19 io_in[26]
*20 io_in[27]
*21 io_in[28]
*22 io_in[29]
*23 io_in[2]
*24 io_in[30]
*25 io_in[31]
*26 io_in[32]
*27 io_in[33]
*28 io_in[34]
*29 io_in[35]
*30 io_in[36]
*31 io_in[37]
*32 io_in[3]
*33 io_in[4]
*34 io_in[5]
*35 io_in[6]
*36 io_in[7]
*37 io_in[8]
*38 io_in[9]
*39 io_oeb[0]
*40 io_oeb[10]
*41 io_oeb[11]
*42 io_oeb[12]
*43 io_oeb[13]
*44 io_oeb[14]
*45 io_oeb[15]
*46 io_oeb[16]
*47 io_oeb[17]
*48 io_oeb[18]
*49 io_oeb[19]
*50 io_oeb[1]
*51 io_oeb[20]
*52 io_oeb[21]
*53 io_oeb[22]
*54 io_oeb[23]
*55 io_oeb[24]
*56 io_oeb[25]
*57 io_oeb[26]
*58 io_oeb[27]
*59 io_oeb[28]
*60 io_oeb[29]
*61 io_oeb[2]
*62 io_oeb[30]
*63 io_oeb[31]
*64 io_oeb[32]
*65 io_oeb[33]
*66 io_oeb[34]
*67 io_oeb[35]
*68 io_oeb[36]
*69 io_oeb[37]
*70 io_oeb[3]
*71 io_oeb[4]
*72 io_oeb[5]
*73 io_oeb[6]
*74 io_oeb[7]
*75 io_oeb[8]
*76 io_oeb[9]
*77 io_out[0]
*78 io_out[10]
*79 io_out[11]
*80 io_out[12]
*81 io_out[13]
*82 io_out[14]
*83 io_out[15]
*84 io_out[16]
*85 io_out[17]
*86 io_out[18]
*87 io_out[19]
*88 io_out[1]
*89 io_out[20]
*90 io_out[21]
*91 io_out[22]
*92 io_out[23]
*93 io_out[24]
*94 io_out[25]
*95 io_out[26]
*96 io_out[27]
*97 io_out[28]
*98 io_out[29]
*99 io_out[2]
*100 io_out[30]
*101 io_out[31]
*102 io_out[32]
*103 io_out[33]
*104 io_out[34]
*105 io_out[35]
*106 io_out[36]
*107 io_out[37]
*108 io_out[3]
*109 io_out[4]
*110 io_out[5]
*111 io_out[6]
*112 io_out[7]
*113 io_out[8]
*114 io_out[9]
*115 la_data_in[0]
*116 la_data_in[10]
*117 la_data_in[11]
*118 la_data_in[12]
*119 la_data_in[13]
*120 la_data_in[14]
*121 la_data_in[15]
*122 la_data_in[16]
*123 la_data_in[17]
*124 la_data_in[18]
*125 la_data_in[19]
*126 la_data_in[1]
*127 la_data_in[20]
*128 la_data_in[21]
*129 la_data_in[22]
*130 la_data_in[23]
*131 la_data_in[24]
*132 la_data_in[25]
*133 la_data_in[26]
*134 la_data_in[27]
*135 la_data_in[28]
*136 la_data_in[29]
*137 la_data_in[2]
*138 la_data_in[30]
*139 la_data_in[31]
*140 la_data_in[32]
*141 la_data_in[33]
*142 la_data_in[34]
*143 la_data_in[35]
*144 la_data_in[36]
*145 la_data_in[37]
*146 la_data_in[38]
*147 la_data_in[39]
*148 la_data_in[3]
*149 la_data_in[40]
*150 la_data_in[41]
*151 la_data_in[42]
*152 la_data_in[43]
*153 la_data_in[44]
*154 la_data_in[45]
*155 la_data_in[46]
*156 la_data_in[47]
*157 la_data_in[48]
*158 la_data_in[49]
*159 la_data_in[4]
*160 la_data_in[50]
*161 la_data_in[51]
*162 la_data_in[52]
*163 la_data_in[53]
*164 la_data_in[54]
*165 la_data_in[55]
*166 la_data_in[56]
*167 la_data_in[57]
*168 la_data_in[58]
*169 la_data_in[59]
*170 la_data_in[5]
*171 la_data_in[60]
*172 la_data_in[61]
*173 la_data_in[62]
*174 la_data_in[63]
*175 la_data_in[6]
*176 la_data_in[7]
*177 la_data_in[8]
*178 la_data_in[9]
*179 la_data_out[0]
*180 la_data_out[10]
*181 la_data_out[11]
*182 la_data_out[12]
*183 la_data_out[13]
*184 la_data_out[14]
*185 la_data_out[15]
*186 la_data_out[16]
*187 la_data_out[17]
*188 la_data_out[18]
*189 la_data_out[19]
*190 la_data_out[1]
*191 la_data_out[20]
*192 la_data_out[21]
*193 la_data_out[22]
*194 la_data_out[23]
*195 la_data_out[24]
*196 la_data_out[25]
*197 la_data_out[26]
*198 la_data_out[27]
*199 la_data_out[28]
*200 la_data_out[29]
*201 la_data_out[2]
*202 la_data_out[30]
*203 la_data_out[31]
*204 la_data_out[32]
*205 la_data_out[33]
*206 la_data_out[34]
*207 la_data_out[35]
*208 la_data_out[36]
*209 la_data_out[37]
*210 la_data_out[38]
*211 la_data_out[39]
*212 la_data_out[3]
*213 la_data_out[40]
*214 la_data_out[41]
*215 la_data_out[42]
*216 la_data_out[43]
*217 la_data_out[44]
*218 la_data_out[45]
*219 la_data_out[46]
*220 la_data_out[47]
*221 la_data_out[48]
*222 la_data_out[49]
*223 la_data_out[4]
*224 la_data_out[50]
*225 la_data_out[51]
*226 la_data_out[52]
*227 la_data_out[53]
*228 la_data_out[54]
*229 la_data_out[55]
*230 la_data_out[56]
*231 la_data_out[57]
*232 la_data_out[58]
*233 la_data_out[59]
*234 la_data_out[5]
*235 la_data_out[60]
*236 la_data_out[61]
*237 la_data_out[62]
*238 la_data_out[63]
*239 la_data_out[6]
*240 la_data_out[7]
*241 la_data_out[8]
*242 la_data_out[9]
*243 la_oenb[0]
*244 la_oenb[10]
*245 la_oenb[11]
*246 la_oenb[12]
*247 la_oenb[13]
*248 la_oenb[14]
*249 la_oenb[15]
*250 la_oenb[16]
*251 la_oenb[17]
*252 la_oenb[18]
*253 la_oenb[19]
*254 la_oenb[1]
*255 la_oenb[20]
*256 la_oenb[21]
*257 la_oenb[22]
*258 la_oenb[23]
*259 la_oenb[24]
*260 la_oenb[25]
*261 la_oenb[26]
*262 la_oenb[27]
*263 la_oenb[28]
*264 la_oenb[29]
*265 la_oenb[2]
*266 la_oenb[30]
*267 la_oenb[31]
*268 la_oenb[32]
*269 la_oenb[33]
*270 la_oenb[34]
*271 la_oenb[35]
*272 la_oenb[36]
*273 la_oenb[37]
*274 la_oenb[38]
*275 la_oenb[39]
*276 la_oenb[3]
*277 la_oenb[40]
*278 la_oenb[41]
*279 la_oenb[42]
*280 la_oenb[43]
*281 la_oenb[44]
*282 la_oenb[45]
*283 la_oenb[46]
*284 la_oenb[47]
*285 la_oenb[48]
*286 la_oenb[49]
*287 la_oenb[4]
*288 la_oenb[50]
*289 la_oenb[51]
*290 la_oenb[52]
*291 la_oenb[53]
*292 la_oenb[54]
*293 la_oenb[55]
*294 la_oenb[56]
*295 la_oenb[57]
*296 la_oenb[58]
*297 la_oenb[59]
*298 la_oenb[5]
*299 la_oenb[60]
*300 la_oenb[61]
*301 la_oenb[62]
*302 la_oenb[63]
*303 la_oenb[6]
*304 la_oenb[7]
*305 la_oenb[8]
*306 la_oenb[9]
*307 user_clock2
*308 user_irq[0]
*309 user_irq[1]
*310 user_irq[2]
*313 wb_clk_i
*314 wb_rst_i
*315 wbs_ack_o
*316 wbs_adr_i[0]
*317 wbs_adr_i[10]
*318 wbs_adr_i[11]
*319 wbs_adr_i[12]
*320 wbs_adr_i[13]
*321 wbs_adr_i[14]
*322 wbs_adr_i[15]
*323 wbs_adr_i[16]
*324 wbs_adr_i[17]
*325 wbs_adr_i[18]
*326 wbs_adr_i[19]
*327 wbs_adr_i[1]
*328 wbs_adr_i[20]
*329 wbs_adr_i[21]
*330 wbs_adr_i[22]
*331 wbs_adr_i[23]
*332 wbs_adr_i[24]
*333 wbs_adr_i[25]
*334 wbs_adr_i[26]
*335 wbs_adr_i[27]
*336 wbs_adr_i[28]
*337 wbs_adr_i[29]
*338 wbs_adr_i[2]
*339 wbs_adr_i[30]
*340 wbs_adr_i[31]
*341 wbs_adr_i[3]
*342 wbs_adr_i[4]
*343 wbs_adr_i[5]
*344 wbs_adr_i[6]
*345 wbs_adr_i[7]
*346 wbs_adr_i[8]
*347 wbs_adr_i[9]
*348 wbs_cyc_i
*349 wbs_dat_i[0]
*350 wbs_dat_i[10]
*351 wbs_dat_i[11]
*352 wbs_dat_i[12]
*353 wbs_dat_i[13]
*354 wbs_dat_i[14]
*355 wbs_dat_i[15]
*356 wbs_dat_i[16]
*357 wbs_dat_i[17]
*358 wbs_dat_i[18]
*359 wbs_dat_i[19]
*360 wbs_dat_i[1]
*361 wbs_dat_i[20]
*362 wbs_dat_i[21]
*363 wbs_dat_i[22]
*364 wbs_dat_i[23]
*365 wbs_dat_i[24]
*366 wbs_dat_i[25]
*367 wbs_dat_i[26]
*368 wbs_dat_i[27]
*369 wbs_dat_i[28]
*370 wbs_dat_i[29]
*371 wbs_dat_i[2]
*372 wbs_dat_i[30]
*373 wbs_dat_i[31]
*374 wbs_dat_i[3]
*375 wbs_dat_i[4]
*376 wbs_dat_i[5]
*377 wbs_dat_i[6]
*378 wbs_dat_i[7]
*379 wbs_dat_i[8]
*380 wbs_dat_i[9]
*381 wbs_dat_o[0]
*382 wbs_dat_o[10]
*383 wbs_dat_o[11]
*384 wbs_dat_o[12]
*385 wbs_dat_o[13]
*386 wbs_dat_o[14]
*387 wbs_dat_o[15]
*388 wbs_dat_o[16]
*389 wbs_dat_o[17]
*390 wbs_dat_o[18]
*391 wbs_dat_o[19]
*392 wbs_dat_o[1]
*393 wbs_dat_o[20]
*394 wbs_dat_o[21]
*395 wbs_dat_o[22]
*396 wbs_dat_o[23]
*397 wbs_dat_o[24]
*398 wbs_dat_o[25]
*399 wbs_dat_o[26]
*400 wbs_dat_o[27]
*401 wbs_dat_o[28]
*402 wbs_dat_o[29]
*403 wbs_dat_o[2]
*404 wbs_dat_o[30]
*405 wbs_dat_o[31]
*406 wbs_dat_o[3]
*407 wbs_dat_o[4]
*408 wbs_dat_o[5]
*409 wbs_dat_o[6]
*410 wbs_dat_o[7]
*411 wbs_dat_o[8]
*412 wbs_dat_o[9]
*413 wbs_sel_i[0]
*414 wbs_sel_i[1]
*415 wbs_sel_i[2]
*416 wbs_sel_i[3]
*417 wbs_stb_i
*418 wbs_we_i
*419 mprj

*PORTS
io_in[0] I
io_in[10] I
io_in[11] I
io_in[12] I
io_in[13] I
io_in[14] I
io_in[15] I
io_in[16] I
io_in[17] I
io_in[18] I
io_in[19] I
io_in[1] I
io_in[20] I
io_in[21] I
io_in[22] I
io_in[23] I
io_in[24] I
io_in[25] I
io_in[26] I
io_in[27] I
io_in[28] I
io_in[29] I
io_in[2] I
io_in[30] I
io_in[31] I
io_in[32] I
io_in[33] I
io_in[34] I
io_in[35] I
io_in[36] I
io_in[37] I
io_in[3] I
io_in[4] I
io_in[5] I
io_in[6] I
io_in[7] I
io_in[8] I
io_in[9] I
io_oeb[0] O
io_oeb[10] O
io_oeb[11] O
io_oeb[12] O
io_oeb[13] O
io_oeb[14] O
io_oeb[15] O
io_oeb[16] O
io_oeb[17] O
io_oeb[18] O
io_oeb[19] O
io_oeb[1] O
io_oeb[20] O
io_oeb[21] O
io_oeb[22] O
io_oeb[23] O
io_oeb[24] O
io_oeb[25] O
io_oeb[26] O
io_oeb[27] O
io_oeb[28] O
io_oeb[29] O
io_oeb[2] O
io_oeb[30] O
io_oeb[31] O
io_oeb[32] O
io_oeb[33] O
io_oeb[34] O
io_oeb[35] O
io_oeb[36] O
io_oeb[37] O
io_oeb[3] O
io_oeb[4] O
io_oeb[5] O
io_oeb[6] O
io_oeb[7] O
io_oeb[8] O
io_oeb[9] O
io_out[0] O
io_out[10] O
io_out[11] O
io_out[12] O
io_out[13] O
io_out[14] O
io_out[15] O
io_out[16] O
io_out[17] O
io_out[18] O
io_out[19] O
io_out[1] O
io_out[20] O
io_out[21] O
io_out[22] O
io_out[23] O
io_out[24] O
io_out[25] O
io_out[26] O
io_out[27] O
io_out[28] O
io_out[29] O
io_out[2] O
io_out[30] O
io_out[31] O
io_out[32] O
io_out[33] O
io_out[34] O
io_out[35] O
io_out[36] O
io_out[37] O
io_out[3] O
io_out[4] O
io_out[5] O
io_out[6] O
io_out[7] O
io_out[8] O
io_out[9] O
la_data_in[0] I
la_data_in[10] I
la_data_in[11] I
la_data_in[12] I
la_data_in[13] I
la_data_in[14] I
la_data_in[15] I
la_data_in[16] I
la_data_in[17] I
la_data_in[18] I
la_data_in[19] I
la_data_in[1] I
la_data_in[20] I
la_data_in[21] I
la_data_in[22] I
la_data_in[23] I
la_data_in[24] I
la_data_in[25] I
la_data_in[26] I
la_data_in[27] I
la_data_in[28] I
la_data_in[29] I
la_data_in[2] I
la_data_in[30] I
la_data_in[31] I
la_data_in[32] I
la_data_in[33] I
la_data_in[34] I
la_data_in[35] I
la_data_in[36] I
la_data_in[37] I
la_data_in[38] I
la_data_in[39] I
la_data_in[3] I
la_data_in[40] I
la_data_in[41] I
la_data_in[42] I
la_data_in[43] I
la_data_in[44] I
la_data_in[45] I
la_data_in[46] I
la_data_in[47] I
la_data_in[48] I
la_data_in[49] I
la_data_in[4] I
la_data_in[50] I
la_data_in[51] I
la_data_in[52] I
la_data_in[53] I
la_data_in[54] I
la_data_in[55] I
la_data_in[56] I
la_data_in[57] I
la_data_in[58] I
la_data_in[59] I
la_data_in[5] I
la_data_in[60] I
la_data_in[61] I
la_data_in[62] I
la_data_in[63] I
la_data_in[6] I
la_data_in[7] I
la_data_in[8] I
la_data_in[9] I
la_data_out[0] O
la_data_out[10] O
la_data_out[11] O
la_data_out[12] O
la_data_out[13] O
la_data_out[14] O
la_data_out[15] O
la_data_out[16] O
la_data_out[17] O
la_data_out[18] O
la_data_out[19] O
la_data_out[1] O
la_data_out[20] O
la_data_out[21] O
la_data_out[22] O
la_data_out[23] O
la_data_out[24] O
la_data_out[25] O
la_data_out[26] O
la_data_out[27] O
la_data_out[28] O
la_data_out[29] O
la_data_out[2] O
la_data_out[30] O
la_data_out[31] O
la_data_out[32] O
la_data_out[33] O
la_data_out[34] O
la_data_out[35] O
la_data_out[36] O
la_data_out[37] O
la_data_out[38] O
la_data_out[39] O
la_data_out[3] O
la_data_out[40] O
la_data_out[41] O
la_data_out[42] O
la_data_out[43] O
la_data_out[44] O
la_data_out[45] O
la_data_out[46] O
la_data_out[47] O
la_data_out[48] O
la_data_out[49] O
la_data_out[4] O
la_data_out[50] O
la_data_out[51] O
la_data_out[52] O
la_data_out[53] O
la_data_out[54] O
la_data_out[55] O
la_data_out[56] O
la_data_out[57] O
la_data_out[58] O
la_data_out[59] O
la_data_out[5] O
la_data_out[60] O
la_data_out[61] O
la_data_out[62] O
la_data_out[63] O
la_data_out[6] O
la_data_out[7] O
la_data_out[8] O
la_data_out[9] O
la_oenb[0] I
la_oenb[10] I
la_oenb[11] I
la_oenb[12] I
la_oenb[13] I
la_oenb[14] I
la_oenb[15] I
la_oenb[16] I
la_oenb[17] I
la_oenb[18] I
la_oenb[19] I
la_oenb[1] I
la_oenb[20] I
la_oenb[21] I
la_oenb[22] I
la_oenb[23] I
la_oenb[24] I
la_oenb[25] I
la_oenb[26] I
la_oenb[27] I
la_oenb[28] I
la_oenb[29] I
la_oenb[2] I
la_oenb[30] I
la_oenb[31] I
la_oenb[32] I
la_oenb[33] I
la_oenb[34] I
la_oenb[35] I
la_oenb[36] I
la_oenb[37] I
la_oenb[38] I
la_oenb[39] I
la_oenb[3] I
la_oenb[40] I
la_oenb[41] I
la_oenb[42] I
la_oenb[43] I
la_oenb[44] I
la_oenb[45] I
la_oenb[46] I
la_oenb[47] I
la_oenb[48] I
la_oenb[49] I
la_oenb[4] I
la_oenb[50] I
la_oenb[51] I
la_oenb[52] I
la_oenb[53] I
la_oenb[54] I
la_oenb[55] I
la_oenb[56] I
la_oenb[57] I
la_oenb[58] I
la_oenb[59] I
la_oenb[5] I
la_oenb[60] I
la_oenb[61] I
la_oenb[62] I
la_oenb[63] I
la_oenb[6] I
la_oenb[7] I
la_oenb[8] I
la_oenb[9] I
user_clock2 I
user_irq[0] O
user_irq[1] O
user_irq[2] O
wb_clk_i I
wb_rst_i I
wbs_ack_o O
wbs_adr_i[0] I
wbs_adr_i[10] I
wbs_adr_i[11] I
wbs_adr_i[12] I
wbs_adr_i[13] I
wbs_adr_i[14] I
wbs_adr_i[15] I
wbs_adr_i[16] I
wbs_adr_i[17] I
wbs_adr_i[18] I
wbs_adr_i[19] I
wbs_adr_i[1] I
wbs_adr_i[20] I
wbs_adr_i[21] I
wbs_adr_i[22] I
wbs_adr_i[23] I
wbs_adr_i[24] I
wbs_adr_i[25] I
wbs_adr_i[26] I
wbs_adr_i[27] I
wbs_adr_i[28] I
wbs_adr_i[29] I
wbs_adr_i[2] I
wbs_adr_i[30] I
wbs_adr_i[31] I
wbs_adr_i[3] I
wbs_adr_i[4] I
wbs_adr_i[5] I
wbs_adr_i[6] I
wbs_adr_i[7] I
wbs_adr_i[8] I
wbs_adr_i[9] I
wbs_cyc_i I
wbs_dat_i[0] I
wbs_dat_i[10] I
wbs_dat_i[11] I
wbs_dat_i[12] I
wbs_dat_i[13] I
wbs_dat_i[14] I
wbs_dat_i[15] I
wbs_dat_i[16] I
wbs_dat_i[17] I
wbs_dat_i[18] I
wbs_dat_i[19] I
wbs_dat_i[1] I
wbs_dat_i[20] I
wbs_dat_i[21] I
wbs_dat_i[22] I
wbs_dat_i[23] I
wbs_dat_i[24] I
wbs_dat_i[25] I
wbs_dat_i[26] I
wbs_dat_i[27] I
wbs_dat_i[28] I
wbs_dat_i[29] I
wbs_dat_i[2] I
wbs_dat_i[30] I
wbs_dat_i[31] I
wbs_dat_i[3] I
wbs_dat_i[4] I
wbs_dat_i[5] I
wbs_dat_i[6] I
wbs_dat_i[7] I
wbs_dat_i[8] I
wbs_dat_i[9] I
wbs_dat_o[0] O
wbs_dat_o[10] O
wbs_dat_o[11] O
wbs_dat_o[12] O
wbs_dat_o[13] O
wbs_dat_o[14] O
wbs_dat_o[15] O
wbs_dat_o[16] O
wbs_dat_o[17] O
wbs_dat_o[18] O
wbs_dat_o[19] O
wbs_dat_o[1] O
wbs_dat_o[20] O
wbs_dat_o[21] O
wbs_dat_o[22] O
wbs_dat_o[23] O
wbs_dat_o[24] O
wbs_dat_o[25] O
wbs_dat_o[26] O
wbs_dat_o[27] O
wbs_dat_o[28] O
wbs_dat_o[29] O
wbs_dat_o[2] O
wbs_dat_o[30] O
wbs_dat_o[31] O
wbs_dat_o[3] O
wbs_dat_o[4] O
wbs_dat_o[5] O
wbs_dat_o[6] O
wbs_dat_o[7] O
wbs_dat_o[8] O
wbs_dat_o[9] O
wbs_sel_i[0] I
wbs_sel_i[1] I
wbs_sel_i[2] I
wbs_sel_i[3] I
wbs_stb_i I
wbs_we_i I

*D_NET *1 0.0157706
*CONN
*P io_in[0] I
*I *419:io_in[0] I *D user_proj_example
*CAP
1 io_in[0] 0.0028608
2 *419:io_in[0] 0.00502449
3 *1:11 0.00788529
*RES
1 io_in[0] *1:11 26.775 
2 *1:11 *419:io_in[0] 41.805 
*END

*D_NET *12 0.0163547
*CONN
*P io_in[1] I
*I *419:io_in[1] I *D user_proj_example
*CAP
1 io_in[1] 0.00593503
2 *419:io_in[1] 0.00224233
3 *12:5 0.00817737
*RES
1 io_in[1] *12:5 47.565 
2 *12:5 *419:io_in[1] 27.855 
*END

*D_NET *23 0.0180212
*CONN
*P io_in[2] I
*I *419:io_in[2] I *D user_proj_example
*CAP
1 io_in[2] 0.00608609
2 *419:io_in[2] 0.00292453
3 *23:5 0.00901062
*RES
1 io_in[2] *23:5 48.825 
2 *23:5 *419:io_in[2] 33.075 
*END

*D_NET *24 0.00732247
*CONN
*P io_in[30] I
*I *419:io_in[8] I *D user_proj_example
*CAP
1 io_in[30] 0.00366123
2 *419:io_in[8] 0.00366123
*RES
1 io_in[30] *419:io_in[8] 36.18 
*END

*D_NET *25 0.00599836
*CONN
*P io_in[31] I
*I *419:io_in[9] I *D user_proj_example
*CAP
1 io_in[31] 0.00299918
2 *419:io_in[9] 0.00299918
*RES
1 io_in[31] *419:io_in[9] 32.895 
*END

*D_NET *26 0.0053315
*CONN
*P io_in[32] I
*I *419:io_in[10] I *D user_proj_example
*CAP
1 io_in[32] 0.00266575
2 *419:io_in[10] 0.00266575
*RES
1 io_in[32] *419:io_in[10] 30.915 
*END

*D_NET *27 0.00470224
*CONN
*P io_in[33] I
*I *419:io_in[11] I *D user_proj_example
*CAP
1 io_in[33] 0.00235112
2 *419:io_in[11] 0.00235112
*RES
1 io_in[33] *419:io_in[11] 28.035 
*END

*D_NET *28 0.00438851
*CONN
*P io_in[34] I
*I *419:io_in[12] I *D user_proj_example
*CAP
1 io_in[34] 0.00219426
2 *419:io_in[12] 0.00219426
*RES
1 io_in[34] *419:io_in[12] 25.92 
*END

*D_NET *29 0.00355672
*CONN
*P io_in[35] I
*I *419:io_in[13] I *D user_proj_example
*CAP
1 io_in[35] 0.00177836
2 *419:io_in[13] 0.00177836
*RES
1 io_in[35] *419:io_in[13] 23.76 
*END

*D_NET *30 0.00333212
*CONN
*P io_in[36] I
*I *419:io_in[14] I *D user_proj_example
*CAP
1 io_in[36] 0.00166606
2 *419:io_in[14] 0.00166606
*RES
1 io_in[36] *419:io_in[14] 22.095 
*END

*D_NET *31 0.00283217
*CONN
*P io_in[37] I
*I *419:io_in[15] I *D user_proj_example
*CAP
1 io_in[37] 0.00141609
2 *419:io_in[15] 0.00141609
*RES
1 io_in[37] *419:io_in[15] 20.115 
*END

*D_NET *32 0.0223344
*CONN
*P io_in[3] I
*I *419:io_in[3] I *D user_proj_example
*CAP
1 io_in[3] 0.00610302
2 *419:io_in[3] 0.00327462
3 *32:5 0.00937764
4 *419:io_in[3] *61:11 0.00134412
5 *419:io_in[3] *108:11 0.00223497
*RES
1 io_in[3] *32:5 48.825 
2 *32:5 *419:io_in[3] 39.555 
*END

*D_NET *33 0.027567
*CONN
*P io_in[4] I
*I *419:io_in[4] I *D user_proj_example
*CAP
1 io_in[4] 0.00606451
2 *419:io_in[4] 0.00334279
3 *33:5 0.0094073
4 *419:io_in[4] *70:11 0.0039373
5 *419:io_in[4] *109:11 0.00481506
*RES
1 io_in[4] *33:5 48.645 
2 *33:5 *419:io_in[4] 46.215 
*END

*D_NET *34 0.0279144
*CONN
*P io_in[5] I
*I *419:io_in[5] I *D user_proj_example
*CAP
1 io_in[5] 0.00610302
2 *419:io_in[5] 0.000471256
3 *34:11 0.00372753
4 *34:5 0.00935929
5 *34:11 *71:9 0.00656538
6 *34:11 *110:11 0.00168794
*RES
1 io_in[5] *34:5 48.825 
2 *34:5 *34:11 48.69 
3 *34:11 *419:io_in[5] 3.825 
*END

*D_NET *35 0.0331023
*CONN
*P io_in[6] I
*I *419:io_in[6] I *D user_proj_example
*CAP
1 io_in[6] 0.00603614
2 *419:io_in[6] 0.000548268
3 *35:9 0.00342091
4 *35:7 0.00287264
5 *35:5 0.00603614
6 *35:5 *110:7 2.59407e-05
7 *35:9 *72:11 0.0040776
8 *35:9 *111:9 0.0100847
*RES
1 io_in[6] *35:5 48.465 
2 *35:5 *35:7 4.5 
3 *35:7 *35:9 46.17 
4 *35:9 *419:io_in[6] 8.685 
*END

*D_NET *36 0.0378636
*CONN
*P io_in[7] I
*I *419:io_in[7] I *D user_proj_example
*CAP
1 io_in[7] 0.00604293
2 *419:io_in[7] 0.000548268
3 *36:9 0.00393107
4 *36:7 0.0033828
5 *36:5 0.00604293
6 *36:9 *73:9 0.00292315
7 *36:9 *111:9 0.00238206
8 *36:9 *112:9 0.0126104
*RES
1 io_in[7] *36:5 48.465 
2 *36:5 *36:7 4.5 
3 *36:7 *36:9 52.65 
4 *36:9 *419:io_in[7] 8.685 
*END

*D_NET *39 0.0159801
*CONN
*P io_oeb[0] O
*I *419:io_oeb[0] O *D user_proj_example
*CAP
1 io_oeb[0] 0.0036692
2 *419:io_oeb[0] 0.00432086
3 *39:11 0.00799006
*RES
1 *419:io_oeb[0] *39:11 44.415 
2 *39:11 io_oeb[0] 28.665 
*END

*D_NET *50 0.01773
*CONN
*P io_oeb[1] O
*I *419:io_oeb[1] O *D user_proj_example
*CAP
1 io_oeb[1] 0.00608609
2 *419:io_oeb[1] 0.00277892
3 *50:11 0.00886501
*RES
1 *419:io_oeb[1] *50:11 30.915 
2 *50:11 io_oeb[1] 48.825 
*END

*D_NET *61 0.0202218
*CONN
*P io_oeb[2] O
*I *419:io_oeb[2] O *D user_proj_example
*CAP
1 io_oeb[2] 0.00607727
2 *419:io_oeb[2] 0.00325167
3 *61:11 0.00932894
4 io_oeb[2] *99:11 8.77676e-06
5 *61:11 *99:11 0.000211056
6 *419:io_in[3] *61:11 0.00134412
*RES
1 *419:io_oeb[2] *61:11 37.575 
2 *61:11 io_oeb[2] 48.645 
*END

*D_NET *62 0.00616498
*CONN
*P io_oeb[30] O
*I *419:io_oeb[8] O *D user_proj_example
*CAP
1 io_oeb[30] 0.00308249
2 *419:io_oeb[8] 0.00308249
*RES
1 *419:io_oeb[8] io_oeb[30] 33.615 
*END

*D_NET *63 0.00516008
*CONN
*P io_oeb[31] O
*I *419:io_oeb[9] O *D user_proj_example
*CAP
1 io_oeb[31] 0.00258004
2 *419:io_oeb[9] 0.00258004
*RES
1 *419:io_oeb[9] io_oeb[31] 30.915 
*END

*D_NET *64 0.00504928
*CONN
*P io_oeb[32] O
*I *419:io_oeb[10] O *D user_proj_example
*CAP
1 io_oeb[32] 0.00252464
2 *419:io_oeb[10] 0.00252464
*RES
1 *419:io_oeb[10] io_oeb[32] 28.8 
*END

*D_NET *65 0.00443178
*CONN
*P io_oeb[33] O
*I *419:io_oeb[11] O *D user_proj_example
*CAP
1 io_oeb[33] 0.00221589
2 *419:io_oeb[11] 0.00221589
*RES
1 *419:io_oeb[11] io_oeb[33] 26.82 
*END

*D_NET *66 0.00441547
*CONN
*P io_oeb[34] O
*I *419:io_oeb[12] O *D user_proj_example
*CAP
1 io_oeb[34] 0.00220773
2 *419:io_oeb[12] 0.00220773
*RES
1 *419:io_oeb[12] io_oeb[34] 26.1 
*END

*D_NET *67 0.003457
*CONN
*P io_oeb[35] O
*I *419:io_oeb[13] O *D user_proj_example
*CAP
1 io_oeb[35] 0.0017285
2 *419:io_oeb[13] 0.0017285
*RES
1 *419:io_oeb[13] io_oeb[35] 22.815 
*END

*D_NET *68 0.00266075
*CONN
*P io_oeb[36] O
*I *419:io_oeb[14] O *D user_proj_example
*CAP
1 io_oeb[36] 0.00133038
2 *419:io_oeb[14] 0.00133038
*RES
1 *419:io_oeb[14] io_oeb[36] 20.115 
*END

*D_NET *69 0.00249901
*CONN
*P io_oeb[37] O
*I *419:io_oeb[15] O *D user_proj_example
*CAP
1 io_oeb[37] 0.0012495
2 *419:io_oeb[15] 0.0012495
*RES
1 *419:io_oeb[15] io_oeb[37] 18.495 
*END

*D_NET *70 0.0258571
*CONN
*P io_oeb[3] O
*I *419:io_oeb[3] O *D user_proj_example
*CAP
1 io_oeb[3] 0.00610302
2 *419:io_oeb[3] 0.00333934
3 *70:11 0.00944236
4 *70:11 *108:11 0.00303504
5 *419:io_in[4] *70:11 0.0039373
*RES
1 *419:io_oeb[3] *70:11 43.875 
2 *70:11 io_oeb[3] 48.825 
*END

*D_NET *71 0.0310234
*CONN
*P io_oeb[4] O
*I *419:io_oeb[4] O *D user_proj_example
*CAP
1 io_oeb[4] 0.00606451
2 *419:io_oeb[4] 0.00328185
3 *71:11 0.00606451
4 *71:9 0.00328185
5 *71:9 *109:11 0.0057653
6 *34:11 *71:9 0.00656538
*RES
1 *419:io_oeb[4] *71:9 46.035 
2 *71:9 *71:11 4.5 
3 *71:11 io_oeb[4] 48.645 
*END

*D_NET *72 0.0263164
*CONN
*P io_oeb[5] O
*I *419:io_oeb[5] O *D user_proj_example
*CAP
1 io_oeb[5] 0.006103
2 *419:io_oeb[5] 0.000471256
3 *72:11 0.00939819
4 *72:7 0.00376644
5 *72:11 *110:11 0.00188307
6 *72:11 *111:9 0.000616894
7 *35:9 *72:11 0.0040776
*RES
1 *419:io_oeb[5] *72:7 8.325 
2 *72:7 *72:11 48.33 
3 *72:11 io_oeb[5] 48.825 
*END

*D_NET *73 0.036735
*CONN
*P io_oeb[6] O
*I *419:io_oeb[6] O *D user_proj_example
*CAP
1 io_oeb[6] 0.00611994
2 *419:io_oeb[6] 0.000471256
3 *73:11 0.00611994
4 *73:9 0.00326079
5 *73:7 0.00373205
6 *73:9 *111:9 0.0109079
7 *73:9 *112:9 0.00319997
8 *36:9 *73:9 0.00292315
*RES
1 *419:io_oeb[6] *73:7 8.325 
2 *73:7 *73:9 50.49 
3 *73:9 *73:11 4.5 
4 *73:11 io_oeb[6] 48.825 
*END

*D_NET *74 0.0370028
*CONN
*P io_oeb[7] O
*I *419:io_oeb[7] O *D user_proj_example
*CAP
1 io_oeb[7] 0.00611994
2 *419:io_oeb[7] 0.000591689
3 *74:11 0.00611994
4 *74:9 0.00501195
5 *74:7 0.00560364
6 *74:9 *112:9 0.0135556
*RES
1 *419:io_oeb[7] *74:7 8.325 
2 *74:7 *74:9 56.97 
3 *74:9 *74:11 4.5 
4 *74:11 io_oeb[7] 48.825 
*END

*D_NET *77 0.0155219
*CONN
*P io_out[0] O
*I *419:io_out[0] O *D user_proj_example
*CAP
1 io_out[0] 0.00300025
2 *419:io_out[0] 0.00476071
3 *77:11 0.00776095
*RES
1 *419:io_out[0] *77:11 48.015 
2 *77:11 io_out[0] 23.085 
*END

*D_NET *88 0.0170632
*CONN
*P io_out[1] O
*I *419:io_out[1] O *D user_proj_example
*CAP
1 io_out[1] 0.00593503
2 *419:io_out[1] 0.00259659
3 *88:11 0.00853162
*RES
1 *419:io_out[1] *88:11 30.015 
2 *88:11 io_out[1] 47.565 
*END

*D_NET *99 0.0188764
*CONN
*P io_out[2] O
*I *419:io_out[2] O *D user_proj_example
*CAP
1 io_out[2] 0.00602135
2 *419:io_out[2] 0.00330695
3 *99:11 0.0093283
4 io_oeb[2] *99:11 8.77676e-06
5 *61:11 *99:11 0.000211056
*RES
1 *419:io_out[2] *99:11 35.775 
2 *99:11 io_out[2] 48.285 
*END

*D_NET *100 0.00616461
*CONN
*P io_out[30] O
*I *419:io_out[8] O *D user_proj_example
*CAP
1 io_out[30] 0.00308231
2 *419:io_out[8] 0.00308231
*RES
1 *419:io_out[8] io_out[30] 34.515 
*END

*D_NET *101 0.00566482
*CONN
*P io_out[31] O
*I *419:io_out[9] O *D user_proj_example
*CAP
1 io_out[31] 0.00283241
2 *419:io_out[9] 0.00283241
*RES
1 *419:io_out[9] io_out[31] 32.175 
*END

*D_NET *102 0.00519314
*CONN
*P io_out[32] O
*I *419:io_out[10] O *D user_proj_example
*CAP
1 io_out[32] 0.00259657
2 *419:io_out[10] 0.00259657
*RES
1 *419:io_out[10] io_out[32] 29.475 
*END

*D_NET *103 0.00500332
*CONN
*P io_out[33] O
*I *419:io_out[11] O *D user_proj_example
*CAP
1 io_out[33] 0.00250166
2 *419:io_out[11] 0.00250166
*RES
1 *419:io_out[11] io_out[33] 28.98 
*END

*D_NET *104 0.00409861
*CONN
*P io_out[34] O
*I *419:io_out[12] O *D user_proj_example
*CAP
1 io_out[34] 0.00204931
2 *419:io_out[12] 0.00204931
*RES
1 *419:io_out[12] io_out[34] 25.2 
*END

*D_NET *105 0.00359867
*CONN
*P io_out[35] O
*I *419:io_out[13] O *D user_proj_example
*CAP
1 io_out[35] 0.00179933
2 *419:io_out[13] 0.00179933
*RES
1 *419:io_out[13] io_out[35] 23.22 
*END

*D_NET *106 0.00295685
*CONN
*P io_out[36] O
*I *419:io_out[14] O *D user_proj_example
*CAP
1 io_out[36] 0.00147842
2 *419:io_out[14] 0.00147842
*RES
1 *419:io_out[14] io_out[36] 21.375 
*END

*D_NET *107 0.00232751
*CONN
*P io_out[37] O
*I *419:io_out[15] O *D user_proj_example
*CAP
1 io_out[37] 0.00116375
2 *419:io_out[15] 0.00116375
*RES
1 *419:io_out[15] io_out[37] 18.675 
*END

*D_NET *108 0.0239598
*CONN
*P io_out[3] O
*I *419:io_out[3] O *D user_proj_example
*CAP
1 io_out[3] 0.00606451
2 *419:io_out[3] 0.0032804
3 *108:11 0.00934491
4 *419:io_in[3] *108:11 0.00223497
5 *70:11 *108:11 0.00303504
*RES
1 *419:io_out[3] *108:11 41.895 
2 *108:11 io_out[3] 48.645 
*END

*D_NET *109 0.0292856
*CONN
*P io_out[4] O
*I *419:io_out[4] O *D user_proj_example
*CAP
1 io_out[4] 0.00610302
2 *419:io_out[4] 0.0032496
3 *109:11 0.00935261
4 *419:io_in[4] *109:11 0.00481506
5 *71:9 *109:11 0.0057653
*RES
1 *419:io_out[4] *109:11 48.195 
2 *109:11 io_out[4] 48.825 
*END

*D_NET *110 0.0245846
*CONN
*P io_out[5] O
*I *419:io_out[5] O *D user_proj_example
*CAP
1 io_out[5] 0.00599977
2 *419:io_out[5] 0.000700606
3 *110:11 0.00979323
4 *110:7 0.00449406
5 *34:11 *110:11 0.00168794
6 *35:5 *110:7 2.59407e-05
7 *72:11 *110:11 0.00188307
*RES
1 *419:io_out[5] *110:7 9.045 
2 *110:7 *110:11 46.35 
3 *110:11 io_out[5] 48.105 
*END

*D_NET *111 0.0419477
*CONN
*P io_out[6] O
*I *419:io_out[6] O *D user_proj_example
*CAP
1 io_out[6] 0.00608144
2 *419:io_out[6] 0.000509762
3 *111:11 0.00608144
4 *111:9 0.00238689
5 *111:7 0.00289666
6 *35:9 *111:9 0.0100847
7 *36:9 *111:9 0.00238206
8 *72:11 *111:9 0.000616894
9 *73:9 *111:9 0.0109079
*RES
1 *419:io_out[6] *111:7 8.505 
2 *111:7 *111:9 48.33 
3 *111:9 *111:11 4.5 
4 *111:11 io_out[6] 48.645 
*END

*D_NET *112 0.0502345
*CONN
*P io_out[7] O
*I *419:io_out[7] O *D user_proj_example
*CAP
1 io_out[7] 0.00758251
2 *419:io_out[7] 0.000509762
3 *112:11 0.00758251
4 *112:9 0.00234193
5 *112:7 0.00285169
6 *36:9 *112:9 0.0126104
7 *73:9 *112:9 0.00319997
8 *74:9 *112:9 0.0135556
*RES
1 *419:io_out[7] *112:7 8.505 
2 *112:7 *112:9 54.81 
3 *112:9 *112:11 4.5 
4 *112:11 io_out[7] 48.645 
*END

*D_NET *115 0.00791753
*CONN
*P la_data_in[0] I
*I *419:la_data_in[0] I *D user_proj_example
*CAP
1 la_data_in[0] 0.00151612
2 *419:la_data_in[0] 0.00151612
3 *419:la_data_in[0] la_data_out[0] 0.00151424
4 *419:la_data_in[0] wbs_dat_o[30] 0
5 *419:la_data_in[0] *419:la_oenb[0] 0.00337106
6 *419:la_data_in[0] *419:wbs_adr_i[31] 0
7 *419:la_data_in[0] *419:wbs_dat_i[30] 0
*RES
1 la_data_in[0] *419:la_data_in[0] 29.25 
*END

*D_NET *116 0.0122096
*CONN
*P la_data_in[10] I
*I *419:la_data_in[10] I *D user_proj_example
*CAP
1 la_data_in[10] 0.00221639
2 *419:la_data_in[10] 0.00221639
3 *419:la_data_in[10] *419:la_data_in[8] 1.52954e-05
4 *419:la_data_in[10] *419:la_oenb[10] 0.00117334
5 *419:la_data_in[10] *419:la_oenb[7] 0
6 *419:la_data_in[10] *419:la_oenb[9] 0.00658815
*RES
1 la_data_in[10] *419:la_data_in[10] 35.37 
*END

*D_NET *117 0.00836998
*CONN
*P la_data_in[11] I
*I *419:la_data_in[11] I *D user_proj_example
*CAP
1 la_data_in[11] 0.00225043
2 *419:la_data_in[11] 0.00225043
3 *419:la_data_in[11] la_data_out[10] 0.00167586
4 *419:la_data_in[11] la_data_out[12] 0.000743618
5 *419:la_data_in[11] la_data_out[13] 5.41148e-05
6 *419:la_data_in[11] *419:la_data_in[13] 0.00139553
*RES
1 la_data_in[11] *419:la_data_in[11] 34.74 
*END

*D_NET *118 0.0172182
*CONN
*P la_data_in[12] I
*I *419:la_data_in[12] I *D user_proj_example
*CAP
1 la_data_in[12] 0.00088495
2 *419:la_data_in[12] 0.00088495
3 *419:la_data_in[12] la_data_out[14] 0.000398751
4 *419:la_data_in[12] *419:la_data_in[14] 0.000548014
5 *419:la_data_in[12] *419:la_oenb[10] 0.00161604
6 *419:la_data_in[12] *419:la_oenb[11] 0.00665428
7 *419:la_data_in[12] *419:la_oenb[12] 0.0062032
8 *419:la_data_in[12] *419:la_oenb[9] 2.80139e-05
*RES
1 la_data_in[12] *419:la_data_in[12] 35.73 
*END

*D_NET *119 0.00926288
*CONN
*P la_data_in[13] I
*I *419:la_data_in[13] I *D user_proj_example
*CAP
1 la_data_in[13] 0.00215032
2 *419:la_data_in[13] 0.00215032
3 *419:la_data_in[13] la_data_out[12] 0.00283999
4 *419:la_data_in[13] la_data_out[13] 0.000153163
5 *419:la_data_in[13] la_data_out[15] 0
6 *419:la_data_in[13] *419:la_data_in[15] 0.000573558
7 *419:la_data_in[13] *419:la_oenb[15] 0
8 *419:la_data_in[11] *419:la_data_in[13] 0.00139553
*RES
1 la_data_in[13] *419:la_data_in[13] 35.28 
*END

*D_NET *120 0.0170905
*CONN
*P la_data_in[14] I
*I *419:la_data_in[14] I *D user_proj_example
*CAP
1 la_data_in[14] 0.0010778
2 *419:la_data_in[14] 0.0010778
3 *419:la_data_in[14] la_data_out[13] 0.00414454
4 *419:la_data_in[14] la_data_out[14] 0.00768456
5 *419:la_data_in[14] *419:la_data_in[16] 0.00197345
6 *419:la_data_in[14] *419:la_oenb[11] 0.000391051
7 *419:la_data_in[14] *419:la_oenb[15] 0.00018575
8 *419:la_data_in[14] *419:la_oenb[16] 7.55765e-06
9 *419:la_data_in[12] *419:la_data_in[14] 0.000548014
*RES
1 la_data_in[14] *419:la_data_in[14] 35.91 
*END

*D_NET *121 0.0102642
*CONN
*P la_data_in[15] I
*I *419:la_data_in[15] I *D user_proj_example
*CAP
1 la_data_in[15] 0.00237041
2 *419:la_data_in[15] 0.00237041
3 *419:la_data_in[15] la_data_out[13] 0.00107494
4 *419:la_data_in[15] la_data_out[17] 0.00111427
5 *419:la_data_in[15] *419:la_oenb[15] 0.0025415
6 *419:la_data_in[15] *419:la_oenb[17] 0.000219086
7 *419:la_data_in[13] *419:la_data_in[15] 0.000573558
*RES
1 la_data_in[15] *419:la_data_in[15] 37.98 
*END

*D_NET *122 0.0170047
*CONN
*P la_data_in[16] I
*I *419:la_data_in[16] I *D user_proj_example
*CAP
1 la_data_in[16] 0.000909895
2 *419:la_data_in[16] 0.000909895
3 *419:la_data_in[16] la_data_out[13] 7.191e-07
4 *419:la_data_in[16] la_data_out[14] 0.000154129
5 *419:la_data_in[16] la_data_out[18] 0
6 *419:la_data_in[16] *419:la_data_in[17] 0.00438591
7 *419:la_data_in[16] *419:la_data_in[18] 0.00247463
8 *419:la_data_in[16] *419:la_oenb[15] 0.00456816
9 *419:la_data_in[16] *419:la_oenb[16] 0.00107992
10 *419:la_data_in[16] *419:la_oenb[17] 0.000548014
11 *419:la_data_in[14] *419:la_data_in[16] 0.00197345
*RES
1 la_data_in[16] *419:la_data_in[16] 37.44 
*END

*D_NET *123 0.0164583
*CONN
*P la_data_in[17] I
*I *419:la_data_in[17] I *D user_proj_example
*CAP
1 la_data_in[17] 0.000911659
2 *419:la_data_in[17] 0.000911659
3 *419:la_data_in[17] la_data_out[14] 4.6613e-06
4 *419:la_data_in[17] la_data_out[17] 0.000424563
5 *419:la_data_in[17] *419:la_data_in[18] 0.00155579