*SPEF "ieee 1481-1999"
*DESIGN "user_project_wrapper"
*DATE "11:11:11 Fri 11 11, 1111"
*VENDOR "OpenRCX"
*PROGRAM "Parallel Extraction"
*VERSION "1.0"
*DESIGN_FLOW "NAME_SCOPE LOCAL" "PIN_CAP NONE"
*DIVIDER /
*DELIMITER :
*BUS_DELIMITER []
*T_UNIT 1 NS
*C_UNIT 1 PF
*R_UNIT 1 OHM
*L_UNIT 1 HENRY

*NAME_MAP
*1 io_in[0]
*2 io_in[10]
*3 io_in[11]
*4 io_in[12]
*5 io_in[13]
*6 io_in[14]
*7 io_in[15]
*8 io_in[16]
*9 io_in[17]
*10 io_in[18]
*11 io_in[19]
*12 io_in[1]
*13 io_in[20]
*14 io_in[21]
*15 io_in[22]
*16 io_in[23]
*17 io_in[24]
*18 io_in[25]
*19 io_in[26]
*20 io_in[27]
*21 io_in[28]
*22 io_in[29]
*23 io_in[2]
*24 io_in[30]
*25 io_in[31]
*26 io_in[32]
*27 io_in[33]
*28 io_in[34]
*29 io_in[35]
*30 io_in[36]
*31 io_in[37]
*32 io_in[3]
*33 io_in[4]
*34 io_in[5]
*35 io_in[6]
*36 io_in[7]
*37 io_in[8]
*38 io_in[9]
*39 io_oeb[0]
*40 io_oeb[10]
*41 io_oeb[11]
*42 io_oeb[12]
*43 io_oeb[13]
*44 io_oeb[14]
*45 io_oeb[15]
*46 io_oeb[16]
*47 io_oeb[17]
*48 io_oeb[18]
*49 io_oeb[19]
*50 io_oeb[1]
*51 io_oeb[20]
*52 io_oeb[21]
*53 io_oeb[22]
*54 io_oeb[23]
*55 io_oeb[24]
*56 io_oeb[25]
*57 io_oeb[26]
*58 io_oeb[27]
*59 io_oeb[28]
*60 io_oeb[29]
*61 io_oeb[2]
*62 io_oeb[30]
*63 io_oeb[31]
*64 io_oeb[32]
*65 io_oeb[33]
*66 io_oeb[34]
*67 io_oeb[35]
*68 io_oeb[36]
*69 io_oeb[37]
*70 io_oeb[3]
*71 io_oeb[4]
*72 io_oeb[5]
*73 io_oeb[6]
*74 io_oeb[7]
*75 io_oeb[8]
*76 io_oeb[9]
*77 io_out[0]
*78 io_out[10]
*79 io_out[11]
*80 io_out[12]
*81 io_out[13]
*82 io_out[14]
*83 io_out[15]
*84 io_out[16]
*85 io_out[17]
*86 io_out[18]
*87 io_out[19]
*88 io_out[1]
*89 io_out[20]
*90 io_out[21]
*91 io_out[22]
*92 io_out[23]
*93 io_out[24]
*94 io_out[25]
*95 io_out[26]
*96 io_out[27]
*97 io_out[28]
*98 io_out[29]
*99 io_out[2]
*100 io_out[30]
*101 io_out[31]
*102 io_out[32]
*103 io_out[33]
*104 io_out[34]
*105 io_out[35]
*106 io_out[36]
*107 io_out[37]
*108 io_out[3]
*109 io_out[4]
*110 io_out[5]
*111 io_out[6]
*112 io_out[7]
*113 io_out[8]
*114 io_out[9]
*115 la_data_in[0]
*116 la_data_in[10]
*117 la_data_in[11]
*118 la_data_in[12]
*119 la_data_in[13]
*120 la_data_in[14]
*121 la_data_in[15]
*122 la_data_in[16]
*123 la_data_in[17]
*124 la_data_in[18]
*125 la_data_in[19]
*126 la_data_in[1]
*127 la_data_in[20]
*128 la_data_in[21]
*129 la_data_in[22]
*130 la_data_in[23]
*131 la_data_in[24]
*132 la_data_in[25]
*133 la_data_in[26]
*134 la_data_in[27]
*135 la_data_in[28]
*136 la_data_in[29]
*137 la_data_in[2]
*138 la_data_in[30]
*139 la_data_in[31]
*140 la_data_in[32]
*141 la_data_in[33]
*142 la_data_in[34]
*143 la_data_in[35]
*144 la_data_in[36]
*145 la_data_in[37]
*146 la_data_in[38]
*147 la_data_in[39]
*148 la_data_in[3]
*149 la_data_in[40]
*150 la_data_in[41]
*151 la_data_in[42]
*152 la_data_in[43]
*153 la_data_in[44]
*154 la_data_in[45]
*155 la_data_in[46]
*156 la_data_in[47]
*157 la_data_in[48]
*158 la_data_in[49]
*159 la_data_in[4]
*160 la_data_in[50]
*161 la_data_in[51]
*162 la_data_in[52]
*163 la_data_in[53]
*164 la_data_in[54]
*165 la_data_in[55]
*166 la_data_in[56]
*167 la_data_in[57]
*168 la_data_in[58]
*169 la_data_in[59]
*170 la_data_in[5]
*171 la_data_in[60]
*172 la_data_in[61]
*173 la_data_in[62]
*174 la_data_in[63]
*175 la_data_in[6]
*176 la_data_in[7]
*177 la_data_in[8]
*178 la_data_in[9]
*179 la_data_out[0]
*180 la_data_out[10]
*181 la_data_out[11]
*182 la_data_out[12]
*183 la_data_out[13]
*184 la_data_out[14]
*185 la_data_out[15]
*186 la_data_out[16]
*187 la_data_out[17]
*188 la_data_out[18]
*189 la_data_out[19]
*190 la_data_out[1]
*191 la_data_out[20]
*192 la_data_out[21]
*193 la_data_out[22]
*194 la_data_out[23]
*195 la_data_out[24]
*196 la_data_out[25]
*197 la_data_out[26]
*198 la_data_out[27]
*199 la_data_out[28]
*200 la_data_out[29]
*201 la_data_out[2]
*202 la_data_out[30]
*203 la_data_out[31]
*204 la_data_out[32]
*205 la_data_out[33]
*206 la_data_out[34]
*207 la_data_out[35]
*208 la_data_out[36]
*209 la_data_out[37]
*210 la_data_out[38]
*211 la_data_out[39]
*212 la_data_out[3]
*213 la_data_out[40]
*214 la_data_out[41]
*215 la_data_out[42]
*216 la_data_out[43]
*217 la_data_out[44]
*218 la_data_out[45]
*219 la_data_out[46]
*220 la_data_out[47]
*221 la_data_out[48]
*222 la_data_out[49]
*223 la_data_out[4]
*224 la_data_out[50]
*225 la_data_out[51]
*226 la_data_out[52]
*227 la_data_out[53]
*228 la_data_out[54]
*229 la_data_out[55]
*230 la_data_out[56]
*231 la_data_out[57]
*232 la_data_out[58]
*233 la_data_out[59]
*234 la_data_out[5]
*235 la_data_out[60]
*236 la_data_out[61]
*237 la_data_out[62]
*238 la_data_out[63]
*239 la_data_out[6]
*240 la_data_out[7]
*241 la_data_out[8]
*242 la_data_out[9]
*243 la_oenb[0]
*244 la_oenb[10]
*245 la_oenb[11]
*246 la_oenb[12]
*247 la_oenb[13]
*248 la_oenb[14]
*249 la_oenb[15]
*250 la_oenb[16]
*251 la_oenb[17]
*252 la_oenb[18]
*253 la_oenb[19]
*254 la_oenb[1]
*255 la_oenb[20]
*256 la_oenb[21]
*257 la_oenb[22]
*258 la_oenb[23]
*259 la_oenb[24]
*260 la_oenb[25]
*261 la_oenb[26]
*262 la_oenb[27]
*263 la_oenb[28]
*264 la_oenb[29]
*265 la_oenb[2]
*266 la_oenb[30]
*267 la_oenb[31]
*268 la_oenb[32]
*269 la_oenb[33]
*270 la_oenb[34]
*271 la_oenb[35]
*272 la_oenb[36]
*273 la_oenb[37]
*274 la_oenb[38]
*275 la_oenb[39]
*276 la_oenb[3]
*277 la_oenb[40]
*278 la_oenb[41]
*279 la_oenb[42]
*280 la_oenb[43]
*281 la_oenb[44]
*282 la_oenb[45]
*283 la_oenb[46]
*284 la_oenb[47]
*285 la_oenb[48]
*286 la_oenb[49]
*287 la_oenb[4]
*288 la_oenb[50]
*289 la_oenb[51]
*290 la_oenb[52]
*291 la_oenb[53]
*292 la_oenb[54]
*293 la_oenb[55]
*294 la_oenb[56]
*295 la_oenb[57]
*296 la_oenb[58]
*297 la_oenb[59]
*298 la_oenb[5]
*299 la_oenb[60]
*300 la_oenb[61]
*301 la_oenb[62]
*302 la_oenb[63]
*303 la_oenb[6]
*304 la_oenb[7]
*305 la_oenb[8]
*306 la_oenb[9]
*307 user_clock2
*308 user_irq[0]
*309 user_irq[1]
*310 user_irq[2]
*313 wb_clk_i
*314 wb_rst_i
*315 wbs_ack_o
*316 wbs_adr_i[0]
*317 wbs_adr_i[10]
*318 wbs_adr_i[11]
*319 wbs_adr_i[12]
*320 wbs_adr_i[13]
*321 wbs_adr_i[14]
*322 wbs_adr_i[15]
*323 wbs_adr_i[16]
*324 wbs_adr_i[17]
*325 wbs_adr_i[18]
*326 wbs_adr_i[19]
*327 wbs_adr_i[1]
*328 wbs_adr_i[20]
*329 wbs_adr_i[21]
*330 wbs_adr_i[22]
*331 wbs_adr_i[23]
*332 wbs_adr_i[24]
*333 wbs_adr_i[25]
*334 wbs_adr_i[26]
*335 wbs_adr_i[27]
*336 wbs_adr_i[28]
*337 wbs_adr_i[29]
*338 wbs_adr_i[2]
*339 wbs_adr_i[30]
*340 wbs_adr_i[31]
*341 wbs_adr_i[3]
*342 wbs_adr_i[4]
*343 wbs_adr_i[5]
*344 wbs_adr_i[6]
*345 wbs_adr_i[7]
*346 wbs_adr_i[8]
*347 wbs_adr_i[9]
*348 wbs_cyc_i
*349 wbs_dat_i[0]
*350 wbs_dat_i[10]
*351 wbs_dat_i[11]
*352 wbs_dat_i[12]
*353 wbs_dat_i[13]
*354 wbs_dat_i[14]
*355 wbs_dat_i[15]
*356 wbs_dat_i[16]
*357 wbs_dat_i[17]
*358 wbs_dat_i[18]
*359 wbs_dat_i[19]
*360 wbs_dat_i[1]
*361 wbs_dat_i[20]
*362 wbs_dat_i[21]
*363 wbs_dat_i[22]
*364 wbs_dat_i[23]
*365 wbs_dat_i[24]
*366 wbs_dat_i[25]
*367 wbs_dat_i[26]
*368 wbs_dat_i[27]
*369 wbs_dat_i[28]
*370 wbs_dat_i[29]
*371 wbs_dat_i[2]
*372 wbs_dat_i[30]
*373 wbs_dat_i[31]
*374 wbs_dat_i[3]
*375 wbs_dat_i[4]
*376 wbs_dat_i[5]
*377 wbs_dat_i[6]
*378 wbs_dat_i[7]
*379 wbs_dat_i[8]
*380 wbs_dat_i[9]
*381 wbs_dat_o[0]
*382 wbs_dat_o[10]
*383 wbs_dat_o[11]
*384 wbs_dat_o[12]
*385 wbs_dat_o[13]
*386 wbs_dat_o[14]
*387 wbs_dat_o[15]
*388 wbs_dat_o[16]
*389 wbs_dat_o[17]
*390 wbs_dat_o[18]
*391 wbs_dat_o[19]
*392 wbs_dat_o[1]
*393 wbs_dat_o[20]
*394 wbs_dat_o[21]
*395 wbs_dat_o[22]
*396 wbs_dat_o[23]
*397 wbs_dat_o[24]
*398 wbs_dat_o[25]
*399 wbs_dat_o[26]
*400 wbs_dat_o[27]
*401 wbs_dat_o[28]
*402 wbs_dat_o[29]
*403 wbs_dat_o[2]
*404 wbs_dat_o[30]
*405 wbs_dat_o[31]
*406 wbs_dat_o[3]
*407 wbs_dat_o[4]
*408 wbs_dat_o[5]
*409 wbs_dat_o[6]
*410 wbs_dat_o[7]
*411 wbs_dat_o[8]
*412 wbs_dat_o[9]
*413 wbs_sel_i[0]
*414 wbs_sel_i[1]
*415 wbs_sel_i[2]
*416 wbs_sel_i[3]
*417 wbs_stb_i
*418 wbs_we_i
*419 mprj

*PORTS
io_in[0] I
io_in[10] I
io_in[11] I
io_in[12] I
io_in[13] I
io_in[14] I
io_in[15] I
io_in[16] I
io_in[17] I
io_in[18] I
io_in[19] I
io_in[1] I
io_in[20] I
io_in[21] I
io_in[22] I
io_in[23] I
io_in[24] I
io_in[25] I
io_in[26] I
io_in[27] I
io_in[28] I
io_in[29] I
io_in[2] I
io_in[30] I
io_in[31] I
io_in[32] I
io_in[33] I
io_in[34] I
io_in[35] I
io_in[36] I
io_in[37] I
io_in[3] I
io_in[4] I
io_in[5] I
io_in[6] I
io_in[7] I
io_in[8] I
io_in[9] I
io_oeb[0] O
io_oeb[10] O
io_oeb[11] O
io_oeb[12] O
io_oeb[13] O
io_oeb[14] O
io_oeb[15] O
io_oeb[16] O
io_oeb[17] O
io_oeb[18] O
io_oeb[19] O
io_oeb[1] O
io_oeb[20] O
io_oeb[21] O
io_oeb[22] O
io_oeb[23] O
io_oeb[24] O
io_oeb[25] O
io_oeb[26] O
io_oeb[27] O
io_oeb[28] O
io_oeb[29] O
io_oeb[2] O
io_oeb[30] O
io_oeb[31] O
io_oeb[32] O
io_oeb[33] O
io_oeb[34] O
io_oeb[35] O
io_oeb[36] O
io_oeb[37] O
io_oeb[3] O
io_oeb[4] O
io_oeb[5] O
io_oeb[6] O
io_oeb[7] O
io_oeb[8] O
io_oeb[9] O
io_out[0] O
io_out[10] O
io_out[11] O
io_out[12] O
io_out[13] O
io_out[14] O
io_out[15] O
io_out[16] O
io_out[17] O
io_out[18] O
io_out[19] O
io_out[1] O
io_out[20] O
io_out[21] O
io_out[22] O
io_out[23] O
io_out[24] O
io_out[25] O
io_out[26] O
io_out[27] O
io_out[28] O
io_out[29] O
io_out[2] O
io_out[30] O
io_out[31] O
io_out[32] O
io_out[33] O
io_out[34] O
io_out[35] O
io_out[36] O
io_out[37] O
io_out[3] O
io_out[4] O
io_out[5] O
io_out[6] O
io_out[7] O
io_out[8] O
io_out[9] O
la_data_in[0] I
la_data_in[10] I
la_data_in[11] I
la_data_in[12] I
la_data_in[13] I
la_data_in[14] I
la_data_in[15] I
la_data_in[16] I
la_data_in[17] I
la_data_in[18] I
la_data_in[19] I
la_data_in[1] I
la_data_in[20] I
la_data_in[21] I
la_data_in[22] I
la_data_in[23] I
la_data_in[24] I
la_data_in[25] I
la_data_in[26] I
la_data_in[27] I
la_data_in[28] I
la_data_in[29] I
la_data_in[2] I
la_data_in[30] I
la_data_in[31] I
la_data_in[32] I
la_data_in[33] I
la_data_in[34] I
la_data_in[35] I
la_data_in[36] I
la_data_in[37] I
la_data_in[38] I
la_data_in[39] I
la_data_in[3] I
la_data_in[40] I
la_data_in[41] I
la_data_in[42] I
la_data_in[43] I
la_data_in[44] I
la_data_in[45] I
la_data_in[46] I
la_data_in[47] I
la_data_in[48] I
la_data_in[49] I
la_data_in[4] I
la_data_in[50] I
la_data_in[51] I
la_data_in[52] I
la_data_in[53] I
la_data_in[54] I
la_data_in[55] I
la_data_in[56] I
la_data_in[57] I
la_data_in[58] I
la_data_in[59] I
la_data_in[5] I
la_data_in[60] I
la_data_in[61] I
la_data_in[62] I
la_data_in[63] I
la_data_in[6] I
la_data_in[7] I
la_data_in[8] I
la_data_in[9] I
la_data_out[0] O
la_data_out[10] O
la_data_out[11] O
la_data_out[12] O
la_data_out[13] O
la_data_out[14] O
la_data_out[15] O
la_data_out[16] O
la_data_out[17] O
la_data_out[18] O
la_data_out[19] O
la_data_out[1] O
la_data_out[20] O
la_data_out[21] O
la_data_out[22] O
la_data_out[23] O
la_data_out[24] O
la_data_out[25] O
la_data_out[26] O
la_data_out[27] O
la_data_out[28] O
la_data_out[29] O
la_data_out[2] O
la_data_out[30] O
la_data_out[31] O
la_data_out[32] O
la_data_out[33] O
la_data_out[34] O
la_data_out[35] O
la_data_out[36] O
la_data_out[37] O
la_data_out[38] O
la_data_out[39] O
la_data_out[3] O
la_data_out[40] O
la_data_out[41] O
la_data_out[42] O
la_data_out[43] O
la_data_out[44] O
la_data_out[45] O
la_data_out[46] O
la_data_out[47] O
la_data_out[48] O
la_data_out[49] O
la_data_out[4] O
la_data_out[50] O
la_data_out[51] O
la_data_out[52] O
la_data_out[53] O
la_data_out[54] O
la_data_out[55] O
la_data_out[56] O
la_data_out[57] O
la_data_out[58] O
la_data_out[59] O
la_data_out[5] O
la_data_out[60] O
la_data_out[61] O
la_data_out[62] O
la_data_out[63] O
la_data_out[6] O
la_data_out[7] O
la_data_out[8] O
la_data_out[9] O
la_oenb[0] I
la_oenb[10] I
la_oenb[11] I
la_oenb[12] I
la_oenb[13] I
la_oenb[14] I
la_oenb[15] I
la_oenb[16] I
la_oenb[17] I
la_oenb[18] I
la_oenb[19] I
la_oenb[1] I
la_oenb[20] I
la_oenb[21] I
la_oenb[22] I
la_oenb[23] I
la_oenb[24] I
la_oenb[25] I
la_oenb[26] I
la_oenb[27] I
la_oenb[28] I
la_oenb[29] I
la_oenb[2] I
la_oenb[30] I
la_oenb[31] I
la_oenb[32] I
la_oenb[33] I
la_oenb[34] I
la_oenb[35] I
la_oenb[36] I
la_oenb[37] I
la_oenb[38] I
la_oenb[39] I
la_oenb[3] I
la_oenb[40] I
la_oenb[41] I
la_oenb[42] I
la_oenb[43] I
la_oenb[44] I
la_oenb[45] I
la_oenb[46] I
la_oenb[47] I
la_oenb[48] I
la_oenb[49] I
la_oenb[4] I
la_oenb[50] I
la_oenb[51] I
la_oenb[52] I
la_oenb[53] I
la_oenb[54] I
la_oenb[55] I
la_oenb[56] I
la_oenb[57] I
la_oenb[58] I
la_oenb[59] I
la_oenb[5] I
la_oenb[60] I
la_oenb[61] I
la_oenb[62] I
la_oenb[63] I
la_oenb[6] I
la_oenb[7] I
la_oenb[8] I
la_oenb[9] I
user_clock2 I
user_irq[0] O
user_irq[1] O
user_irq[2] O
wb_clk_i I
wb_rst_i I
wbs_ack_o O
wbs_adr_i[0] I
wbs_adr_i[10] I
wbs_adr_i[11] I
wbs_adr_i[12] I
wbs_adr_i[13] I
wbs_adr_i[14] I
wbs_adr_i[15] I
wbs_adr_i[16] I
wbs_adr_i[17] I
wbs_adr_i[18] I
wbs_adr_i[19] I
wbs_adr_i[1] I
wbs_adr_i[20] I
wbs_adr_i[21] I
wbs_adr_i[22] I
wbs_adr_i[23] I
wbs_adr_i[24] I
wbs_adr_i[25] I
wbs_adr_i[26] I
wbs_adr_i[27] I
wbs_adr_i[28] I
wbs_adr_i[29] I
wbs_adr_i[2] I
wbs_adr_i[30] I
wbs_adr_i[31] I
wbs_adr_i[3] I
wbs_adr_i[4] I
wbs_adr_i[5] I
wbs_adr_i[6] I
wbs_adr_i[7] I
wbs_adr_i[8] I
wbs_adr_i[9] I
wbs_cyc_i I
wbs_dat_i[0] I
wbs_dat_i[10] I
wbs_dat_i[11] I
wbs_dat_i[12] I
wbs_dat_i[13] I
wbs_dat_i[14] I
wbs_dat_i[15] I
wbs_dat_i[16] I
wbs_dat_i[17] I
wbs_dat_i[18] I
wbs_dat_i[19] I
wbs_dat_i[1] I
wbs_dat_i[20] I
wbs_dat_i[21] I
wbs_dat_i[22] I
wbs_dat_i[23] I
wbs_dat_i[24] I
wbs_dat_i[25] I
wbs_dat_i[26] I
wbs_dat_i[27] I
wbs_dat_i[28] I
wbs_dat_i[29] I
wbs_dat_i[2] I
wbs_dat_i[30] I
wbs_dat_i[31] I
wbs_dat_i[3] I
wbs_dat_i[4] I
wbs_dat_i[5] I
wbs_dat_i[6] I
wbs_dat_i[7] I
wbs_dat_i[8] I
wbs_dat_i[9] I
wbs_dat_o[0] O
wbs_dat_o[10] O
wbs_dat_o[11] O
wbs_dat_o[12] O
wbs_dat_o[13] O
wbs_dat_o[14] O
wbs_dat_o[15] O
wbs_dat_o[16] O
wbs_dat_o[17] O
wbs_dat_o[18] O
wbs_dat_o[19] O
wbs_dat_o[1] O
wbs_dat_o[20] O
wbs_dat_o[21] O
wbs_dat_o[22] O
wbs_dat_o[23] O
wbs_dat_o[24] O
wbs_dat_o[25] O
wbs_dat_o[26] O
wbs_dat_o[27] O
wbs_dat_o[28] O
wbs_dat_o[29] O
wbs_dat_o[2] O
wbs_dat_o[30] O
wbs_dat_o[31] O
wbs_dat_o[3] O
wbs_dat_o[4] O
wbs_dat_o[5] O
wbs_dat_o[6] O
wbs_dat_o[7] O
wbs_dat_o[8] O
wbs_dat_o[9] O
wbs_sel_i[0] I
wbs_sel_i[1] I
wbs_sel_i[2] I
wbs_sel_i[3] I
wbs_stb_i I
wbs_we_i I

*D_NET *2 0.0791966
*CONN
*P io_in[10] I
*I *419:io_in[5] I *D user_proj_example
*CAP
1 io_in[10] 0.00584069
2 *419:io_in[5] 0.000922952
3 *2:9 0.0337576
4 *2:7 0.0386753
*RES
1 io_in[10] *2:7 45.73 
2 *2:7 *2:9 238.412 
3 *2:9 *419:io_in[5] 10.466 
*END

*D_NET *3 0.178685
*CONN
*P io_in[11] I
*I *419:io_in[6] I *D user_proj_example
*CAP
1 io_in[11] 0.00100554
2 *419:io_in[6] 0.0057857
3 *3:9 0.0137199
4 *3:7 0.00893972
5 *3:9 *38:9 0.0522194
6 *3:9 *82:27 0.0970152
*RES
1 io_in[11] *3:7 11.226 
2 *3:7 *3:9 232.94 
3 *3:9 *419:io_in[6] 44.97 
*END

*D_NET *4 0.0763581
*CONN
*P io_in[12] I
*I *419:io_in[7] I *D user_proj_example
*CAP
1 io_in[12] 0.00519421
2 *419:io_in[7] 0.00158361
3 *4:9 0.0329848
4 *4:7 0.0365954
*RES
1 io_in[12] *4:7 41.17 
2 *4:7 *4:9 227.468 
3 *4:9 *419:io_in[7] 15.026 
*END

*D_NET *34 0.0871291
*CONN
*P io_in[5] I
*I *419:io_in[0] I *D user_proj_example
*CAP
1 io_in[5] 0.0061776
2 *419:io_in[0] 0.000606484
3 *34:9 0.0373869
4 *34:7 0.0429581
5 *34:9 *81:11 0
6 *34:9 *82:9 0
7 *34:9 *82:25 0
*RES
1 io_in[5] *34:7 48.01 
2 *34:7 *34:9 265.772 
3 *34:9 *419:io_in[0] 8.186 
*END

*D_NET *35 0.173501
*CONN
*P io_in[6] I
*I *419:io_in[1] I *D user_proj_example
*CAP
1 io_in[6] 0.00101922
2 *419:io_in[1] 0.00572383
3 *35:9 0.0185626
4 *35:7 0.013858
5 *35:9 *38:9 0.0343144
6 *35:9 *81:25 0.0084529
7 *35:9 *82:27 0.0915699
*RES
1 io_in[6] *35:7 11.226 
2 *35:7 *35:9 260.3 
3 *35:9 *419:io_in[1] 44.97 
*END

*D_NET *36 0.0839431
*CONN
*P io_in[7] I
*I *419:io_in[2] I *D user_proj_example
*CAP
1 io_in[7] 0.00523525
2 *419:io_in[2] 0.00154883
3 *36:9 0.0367363
4 *36:7 0.0404227
*RES
1 io_in[7] *36:7 41.17 
2 *36:7 *36:9 254.828 
3 *36:9 *419:io_in[2] 15.026 
*END

*D_NET *37 0.0823451
*CONN
*P io_in[8] I
*I *419:io_in[3] I *D user_proj_example
*CAP
1 io_in[8] 0.00491202
2 *419:io_in[3] 0.00187897
3 *37:9 0.0362605
4 *37:7 0.0392936
*RES
1 io_in[8] *37:7 38.89 
2 *37:7 *37:9 249.356 
3 *37:9 *419:io_in[3] 17.306 
*END

*D_NET *38 0.145009
*CONN
*P io_in[9] I
*I *419:io_in[4] I *D user_proj_example
*CAP
1 io_in[9] 0.00117099
2 *419:io_in[4] 0.00706288
3 *38:9 0.0242518
4 *38:7 0.0183599
5 *38:9 *82:27 0.00762983
6 *3:9 *38:9 0.0522194
7 *35:9 *38:9 0.0343144
*RES
1 io_in[9] *38:7 11.074 
2 *38:7 *38:9 243.884 
3 *38:9 *419:io_in[4] 45.122 
*END

*D_NET *81 0.385515
*CONN
*P io_out[13] O
*I *419:io_oeb[0] O *D user_proj_example
*I *419:io_out[0] O *D user_proj_example
*CAP
1 io_out[13] 0.00106049
2 *419:io_oeb[0] 0.000616815
3 *419:io_out[0] 0.00483801
4 *81:25 0.0498237
5 *81:23 0.0540009
6 *81:11 0.0106925
7 *81:25 *82:27 0.256029
8 *34:9 *81:11 0
9 *35:9 *81:25 0.0084529
*RES
1 *419:io_out[0] *81:11 32.522 
2 *81:11 *419:io_oeb[0] 3.762 
3 *81:11 *81:23 42.12 
4 *81:23 *81:25 673.588 
5 *81:25 io_out[13] 11.53 
*END

*D_NET *82 0.51061
*CONN
*P io_out[14] O
*I *419:io_oeb[1] O *D user_proj_example
*I *419:io_out[1] O *D user_proj_example
*CAP
1 io_out[14] 0.00102617
2 *419:io_oeb[1] 0.000506177
3 *419:io_out[1] 0.00463924
4 *82:27 0.0185231
5 *82:25 0.0230111
6 *82:9 0.0106596
7 *3:9 *82:27 0.0970152
8 *34:9 *82:9 0
9 *34:9 *82:25 0
10 *35:9 *82:27 0.0915699
11 *38:9 *82:27 0.00762983
12 *81:25 *82:27 0.256029
*RES
1 *419:io_out[1] *82:9 26.958 
2 *82:9 *419:io_oeb[1] 7.122 
3 *82:9 *82:25 47.912 
4 *82:25 *82:27 668.116 
5 *82:27 io_out[14] 11.378 
*END

*D_NET *83 0.259167
*CONN
*P io_out[15] O
*I *419:io_oeb[2] O *D user_proj_example
*I *419:io_out[2] O *D user_proj_example
*CAP
1 io_out[15] 0.0830688
2 *419:io_oeb[2] 0.00050376
3 *419:io_out[2] 0.00337191
4 *83:11 0.0831327
5 *83:9 0.0039396
6 io_out[15] *419:io_oeb[3] 0.00329151
7 io_out[15] *419:io_oeb[4] 0.00329151
8 io_out[15] *86:9 0.00329151
9 io_out[15] *86:19 0.075276
*RES
1 *419:io_out[2] *83:9 26.958 
2 *83:9 *83:11 0.38 
3 *83:11 io_out[15] 637.374 
4 *83:9 *419:io_oeb[2] 7.122 
*END

*D_NET *84 0.230429
*CONN
*P io_out[16] O
*I *419:io_oeb[3] O *D user_proj_example
*I *419:io_out[3] O *D user_proj_example
*CAP
1 io_out[16] 0.00162423
2 *419:io_oeb[3] 0.0161514
3 *419:io_out[3] 0.00304649
4 *84:29 0.0974174
5 *84:27 0.0957932
6 *84:25 0.0131049
7 io_out[15] *419:io_oeb[3] 0.00329151
*RES
1 *419:io_out[3] *419:io_oeb[3] 34.688 
2 *419:io_oeb[3] *84:25 47.4549 
3 *84:25 *84:27 4.5 
4 *84:27 *84:29 565.638 
5 *84:29 io_out[16] 19.754 
*END

*D_NET *85 0.195369
*CONN
*P io_out[17] O
*I *419:io_oeb[4] O *D user_proj_example
*I *419:io_out[4] O *D user_proj_example
*CAP
1 io_out[17] 0.00105672
2 *419:io_oeb[4] 0.00336182
3 *419:io_out[4] 0.00303781
4 *85:29 0.0714781
5 *85:27 0.0704213
6 *85:25 0.0211264
7 *85:23 0.0214504
8 io_out[17] *86:23 0.000144611
9 io_out[15] *419:io_oeb[4] 0.00329151
*RES
1 *419:io_out[4] *419:io_oeb[4] 34.536 
2 *419:io_oeb[4] *85:23 11.2773 
3 *85:23 *85:25 73.2955 
4 *85:25 *85:27 4.5 
5 *85:27 *85:29 510.761 
6 *85:29 io_out[17] 16.714 
*END

*D_NET *86 0.436266
*CONN
*P io_out[18] O
*I *419:io_oeb[5] O *D user_proj_example
*I *419:io_out[5] O *D user_proj_example
*CAP
1 io_out[18] 0.000977306
2 *419:io_oeb[5] 0.000469124
3 *419:io_out[5] 0.00250677
4 *86:23 0.0201904
5 *86:21 0.0192131
6 *86:19 0.0160904
7 *86:9 0.0190663
8 *86:19 *87:9 0.00801691
9 *86:19 *87:19 0.159342
10 *86:23 *87:23 0.111682
11 io_out[15] *86:9 0.00329151
12 io_out[15] *86:19 0.075276
13 io_out[17] *86:23 0.000144611
*RES
1 *419:io_out[5] *86:9 26.958 
2 *86:9 *419:io_oeb[5] 7.122 
3 *86:9 *86:19 452.884 
4 *86:19 *86:21 4.5 
5 *86:21 *86:23 269.572 
6 *86:23 io_out[18] 11.226 
*END

*D_NET *87 0.598426
*CONN
*P io_out[19] O
*I *419:io_oeb[6] O *D user_proj_example
*I *419:io_out[6] O *D user_proj_example
*CAP
1 io_out[19] 0.000999175
2 *419:io_oeb[6] 0.000503702
3 *419:io_out[6] 0.0019693
4 *87:23 0.00804563
5 *87:21 0.00704646
6 *87:19 0.00301069
7 *87:9 0.00548369
8 *87:19 *89:9 0.00803075
9 *87:19 *89:19 0.135286
10 *87:23 *89:23 0.14901
11 *86:19 *87:9 0.00801691
12 *86:19 *87:19 0.159342
13 *86:23 *87:23 0.111682
*RES
1 *419:io_out[6] *87:9 27.11 
2 *87:9 *419:io_oeb[6] 7.274 
3 *87:9 *87:19 393.452 
4 *87:19 *87:21 4.5 
5 *87:21 *87:23 359.556 
6 *87:23 io_out[19] 11.378 
*END

*D_NET *89 0.424773
*CONN
*P io_out[20] O
*I *419:io_oeb[7] O *D user_proj_example
*I *419:io_out[7] O *D user_proj_example
*CAP
1 io_out[20] 0.00102104
2 *419:io_oeb[7] 0.00053828
3 *419:io_out[7] 0.00199424
4 *89:23 0.0393121
5 *89:21 0.038291
6 *89:19 0.0243785
7 *89:9 0.026911
8 *87:19 *89:9 0.00803075
9 *87:19 *89:19 0.135286
10 *87:23 *89:23 0.14901
*RES
1 *419:io_out[7] *89:9 27.262 
2 *89:9 *419:io_oeb[7] 7.426 
3 *89:9 *89:19 334.02 
4 *89:19 *89:21 4.5 
5 *89:21 *89:23 449.692 
6 *89:23 io_out[20] 11.53 
*END

*D_NET *90 0.166221
*CONN
*P io_out[21] O
*I *419:io_oeb[8] O *D user_proj_example
*I *419:io_out[8] O *D user_proj_example
*CAP
1 io_out[21] 0.00104345
2 *419:io_oeb[8] 0.00247344
3 *419:io_out[8] 0.00260874
4 *90:37 0.0477753
5 *90:35 0.0467318
6 *90:33 0.0269265
7 *90:31 0.0270618
8 *419:io_oeb[8] *91:19 0.0116002
*RES
1 *419:io_out[8] *419:io_oeb[8] 39.4 
2 *419:io_out[8] *90:31 9.84414 
3 *90:31 *90:33 92.7045 
4 *90:33 *90:35 4.5 
5 *90:35 *90:37 339.028 
6 *90:37 io_out[21] 16.106 
*END

*D_NET *91 0.172235
*CONN
*P io_out[22] O
*I *419:io_oeb[9] O *D user_proj_example
*I *419:io_out[9] O *D user_proj_example
*CAP
1 io_out[22] 0.00102104
2 *419:io_oeb[9] 0.00449264
3 *419:io_out[9] 0.000250725
4 *91:23 0.0197942
5 *91:21 0.0187732
6 *91:19 0.0557797
7 *91:7 0.060523
8 *91:23 io_out[23] 0
9 *419:io_oeb[8] *91:19 0.0116002
*RES
1 *419:io_out[9] *91:7 5.45 
2 *91:7 *419:io_oeb[9] 35.318 
3 *91:7 *91:19 396.644 
4 *91:19 *91:21 4.5 
5 *91:21 *91:23 133.38 
6 *91:23 io_out[22] 11.53 
*END

*D_NET *92 0.147808
*CONN
*P io_out[23] O
*I *419:io_oeb[10] O *D user_proj_example
*I *419:io_out[10] O *D user_proj_example
*CAP
1 io_out[23] 0.00110013
2 *419:io_oeb[10] 0.00435951
3 *419:io_out[10] 0.0096354
4 *92:33 0.0642684
5 *92:31 0.0684442
6 *91:23 io_out[23] 0
*RES
1 *419:io_out[10] *419:io_oeb[10] 38.944 
2 *419:io_out[10] *92:31 31.8405 
3 *92:31 *92:33 457.995 
4 *92:33 io_out[23] 16.562 
*END

*D_NET *93 0.375699
*CONN
*P io_out[24] O
*I *419:io_oeb[11] O *D user_proj_example
*I *419:io_out[11] O *D user_proj_example
*CAP
1 io_out[24] 0.00064847
2 *419:io_oeb[11] 0.00416589
3 *419:io_out[11] 0
4 *93:21 0.0135809
5 *93:19 0.0135069
6 *93:4 0.0047403
7 *93:21 *94:25 0.181499
8 *93:21 *95:27 0.157558
*RES
1 *419:io_out[11] *93:4 4.5 
2 *93:4 *419:io_oeb[11] 34.368 
3 *93:4 *93:19 10.8406 
4 *93:19 *93:21 492.825 
5 *93:21 io_out[24] 9.098 
*END

*D_NET *94 0.275866
*CONN
*P io_out[25] O
*I *419:io_oeb[12] O *D user_proj_example
*I *419:io_out[12] O *D user_proj_example
*CAP
1 io_out[25] 0.00068279
2 *419:io_oeb[12] 0.00415895
3 *419:io_out[12] 8.10105e-05
4 *94:25 0.0356669
5 *94:23 0.036005
6 *94:6 0.00526085
7 *94:25 *95:27 0.0125118
8 *93:21 *94:25 0.181499
*RES
1 *419:io_out[12] *94:6 4.899 
2 *94:6 *419:io_oeb[12] 34.957 
3 *94:6 *94:23 10.3227 
4 *94:23 *94:25 495.463 
5 *94:25 io_out[25] 9.25 
*END

*D_NET *95 0.382373
*CONN
*P io_out[26] O
*I *419:io_oeb[13] O *D user_proj_example
*I *419:io_out[13] O *D user_proj_example
*CAP
1 io_out[26] 0.000627833
2 *419:io_oeb[13] 0.00413123
3 *419:io_out[13] 0.00476513
4 *95:27 0.00988001
5 *95:25 0.00988608
6 *95:27 *96:21 0.183013
7 *93:21 *95:27 0.157558
8 *94:25 *95:27 0.0125118
*RES
1 *419:io_out[13] *419:io_oeb[13] 38.868 
2 *419:io_out[13] *95:25 16.1639 
3 *95:25 *95:27 496.636 
4 *95:27 io_out[26] 8.946 
*END

*D_NET *96 0.396119
*CONN
*P io_out[27] O
*I *419:io_oeb[14] O *D user_proj_example
*I *419:io_out[14] O *D user_proj_example
*CAP
1 io_out[27] 0.000607195
2 *419:io_oeb[14] 0.00415108
3 *419:io_out[14] 0
4 *96:21 0.00986453
5 *96:19 0.00973899
6 *96:4 0.00463273
7 *96:21 *97:21 0.184112
8 *95:27 *96:21 0.183013
*RES
1 *419:io_out[14] *96:4 4.5 
2 *96:4 *419:io_oeb[14] 34.368 
3 *96:4 *96:19 10.6481 
4 *96:19 *96:21 499.274 
5 *96:21 io_out[27] 8.794 
*END

*D_NET *97 0.272893
*CONN
*P io_out[28] O
*I *419:io_oeb[15] O *D user_proj_example
*I *419:io_out[15] O *D user_proj_example
*CAP
1 io_out[28] 0.000586558
2 *419:io_oeb[15] 0.00408252
3 *419:io_out[15] 0
4 *97:21 0.0398492
5 *97:19 0.0397215
6 *97:4 0.00454137
7 *96:21 *97:21 0.184112
*RES
1 *419:io_out[15] *97:4 4.5 
2 *97:4 *419:io_oeb[15] 34.368 
3 *97:4 *97:19 10.5628 
4 *97:19 *97:21 501.424 
5 *97:21 io_out[28] 8.642 
*END

*D_NET *313 0.0973467
*CONN
*P wb_clk_i I
*I *419:wb_clk_i I *D user_proj_example
*CAP
1 wb_clk_i 0.000140838
2 *419:wb_clk_i 0.000366863
3 *313:13 0.0126367
4 *313:11 0.0124107
5 *313:13 *314:13 0.0717916
*RES
1 wb_clk_i *313:11 5.602 
2 *313:11 *313:13 174.42 
3 *313:13 *419:wb_clk_i 6.894 
*END

*D_NET *314 0.201481
*CONN
*P wb_rst_i I
*I *419:wb_rst_i I *D user_proj_example
*CAP
1 wb_rst_i 0.000118969
2 *419:wb_rst_i 0.000332172
3 *314:13 0.064726
4 *314:11 0.0645128
5 *313:13 *314:13 0.0717916
*RES
1 wb_rst_i *314:11 5.45 
2 *314:11 *314:13 552.444 
3 *314:13 *419:wb_rst_i 6.742 
*END
