*SPEF "ieee 1481-1999"
*DESIGN "user_project_wrapper"
*DATE "11:11:11 Fri 11 11, 1111"
*VENDOR "OpenRCX"
*PROGRAM "Parallel Extraction"
*VERSION "1.0"
*DESIGN_FLOW "NAME_SCOPE LOCAL" "PIN_CAP NONE"
*DIVIDER /
*DELIMITER :
*BUS_DELIMITER []
*T_UNIT 1 NS
*C_UNIT 1 PF
*R_UNIT 1 OHM
*L_UNIT 1 HENRY

*NAME_MAP
*1 io_in[0]
*2 io_in[10]
*3 io_in[11]
*4 io_in[12]
*5 io_in[13]
*6 io_in[14]
*7 io_in[15]
*8 io_in[16]
*9 io_in[17]
*10 io_in[18]
*11 io_in[19]
*12 io_in[1]
*13 io_in[20]
*14 io_in[21]
*15 io_in[22]
*16 io_in[23]
*17 io_in[24]
*18 io_in[25]
*19 io_in[26]
*20 io_in[27]
*21 io_in[28]
*22 io_in[29]
*23 io_in[2]
*24 io_in[30]
*25 io_in[31]
*26 io_in[32]
*27 io_in[33]
*28 io_in[34]
*29 io_in[35]
*30 io_in[36]
*31 io_in[37]
*32 io_in[3]
*33 io_in[4]
*34 io_in[5]
*35 io_in[6]
*36 io_in[7]
*37 io_in[8]
*38 io_in[9]
*39 io_oeb[0]
*40 io_oeb[10]
*41 io_oeb[11]
*42 io_oeb[12]
*43 io_oeb[13]
*44 io_oeb[14]
*45 io_oeb[15]
*46 io_oeb[16]
*47 io_oeb[17]
*48 io_oeb[18]
*49 io_oeb[19]
*50 io_oeb[1]
*51 io_oeb[20]
*52 io_oeb[21]
*53 io_oeb[22]
*54 io_oeb[23]
*55 io_oeb[24]
*56 io_oeb[25]
*57 io_oeb[26]
*58 io_oeb[27]
*59 io_oeb[28]
*60 io_oeb[29]
*61 io_oeb[2]
*62 io_oeb[30]
*63 io_oeb[31]
*64 io_oeb[32]
*65 io_oeb[33]
*66 io_oeb[34]
*67 io_oeb[35]
*68 io_oeb[36]
*69 io_oeb[37]
*70 io_oeb[3]
*71 io_oeb[4]
*72 io_oeb[5]
*73 io_oeb[6]
*74 io_oeb[7]
*75 io_oeb[8]
*76 io_oeb[9]
*77 io_out[0]
*78 io_out[10]
*79 io_out[11]
*80 io_out[12]
*81 io_out[13]
*82 io_out[14]
*83 io_out[15]
*84 io_out[16]
*85 io_out[17]
*86 io_out[18]
*87 io_out[19]
*88 io_out[1]
*89 io_out[20]
*90 io_out[21]
*91 io_out[22]
*92 io_out[23]
*93 io_out[24]
*94 io_out[25]
*95 io_out[26]
*96 io_out[27]
*97 io_out[28]
*98 io_out[29]
*99 io_out[2]
*100 io_out[30]
*101 io_out[31]
*102 io_out[32]
*103 io_out[33]
*104 io_out[34]
*105 io_out[35]
*106 io_out[36]
*107 io_out[37]
*108 io_out[3]
*109 io_out[4]
*110 io_out[5]
*111 io_out[6]
*112 io_out[7]
*113 io_out[8]
*114 io_out[9]
*115 la_data_in[0]
*116 la_data_in[10]
*117 la_data_in[11]
*118 la_data_in[12]
*119 la_data_in[13]
*120 la_data_in[14]
*121 la_data_in[15]
*122 la_data_in[16]
*123 la_data_in[17]
*124 la_data_in[18]
*125 la_data_in[19]
*126 la_data_in[1]
*127 la_data_in[20]
*128 la_data_in[21]
*129 la_data_in[22]
*130 la_data_in[23]
*131 la_data_in[24]
*132 la_data_in[25]
*133 la_data_in[26]
*134 la_data_in[27]
*135 la_data_in[28]
*136 la_data_in[29]
*137 la_data_in[2]
*138 la_data_in[30]
*139 la_data_in[31]
*140 la_data_in[32]
*141 la_data_in[33]
*142 la_data_in[34]
*143 la_data_in[35]
*144 la_data_in[36]
*145 la_data_in[37]
*146 la_data_in[38]
*147 la_data_in[39]
*148 la_data_in[3]
*149 la_data_in[40]
*150 la_data_in[41]
*151 la_data_in[42]
*152 la_data_in[43]
*153 la_data_in[44]
*154 la_data_in[45]
*155 la_data_in[46]
*156 la_data_in[47]
*157 la_data_in[48]
*158 la_data_in[49]
*159 la_data_in[4]
*160 la_data_in[50]
*161 la_data_in[51]
*162 la_data_in[52]
*163 la_data_in[53]
*164 la_data_in[54]
*165 la_data_in[55]
*166 la_data_in[56]
*167 la_data_in[57]
*168 la_data_in[58]
*169 la_data_in[59]
*170 la_data_in[5]
*171 la_data_in[60]
*172 la_data_in[61]
*173 la_data_in[62]
*174 la_data_in[63]
*175 la_data_in[6]
*176 la_data_in[7]
*177 la_data_in[8]
*178 la_data_in[9]
*179 la_data_out[0]
*180 la_data_out[10]
*181 la_data_out[11]
*182 la_data_out[12]
*183 la_data_out[13]
*184 la_data_out[14]
*185 la_data_out[15]
*186 la_data_out[16]
*187 la_data_out[17]
*188 la_data_out[18]
*189 la_data_out[19]
*190 la_data_out[1]
*191 la_data_out[20]
*192 la_data_out[21]
*193 la_data_out[22]
*194 la_data_out[23]
*195 la_data_out[24]
*196 la_data_out[25]
*197 la_data_out[26]
*198 la_data_out[27]
*199 la_data_out[28]
*200 la_data_out[29]
*201 la_data_out[2]
*202 la_data_out[30]
*203 la_data_out[31]
*204 la_data_out[32]
*205 la_data_out[33]
*206 la_data_out[34]
*207 la_data_out[35]
*208 la_data_out[36]
*209 la_data_out[37]
*210 la_data_out[38]
*211 la_data_out[39]
*212 la_data_out[3]
*213 la_data_out[40]
*214 la_data_out[41]
*215 la_data_out[42]
*216 la_data_out[43]
*217 la_data_out[44]
*218 la_data_out[45]
*219 la_data_out[46]
*220 la_data_out[47]
*221 la_data_out[48]
*222 la_data_out[49]
*223 la_data_out[4]
*224 la_data_out[50]
*225 la_data_out[51]
*226 la_data_out[52]
*227 la_data_out[53]
*228 la_data_out[54]
*229 la_data_out[55]
*230 la_data_out[56]
*231 la_data_out[57]
*232 la_data_out[58]
*233 la_data_out[59]
*234 la_data_out[5]
*235 la_data_out[60]
*236 la_data_out[61]
*237 la_data_out[62]
*238 la_data_out[63]
*239 la_data_out[6]
*240 la_data_out[7]
*241 la_data_out[8]
*242 la_data_out[9]
*243 la_oenb[0]
*244 la_oenb[10]
*245 la_oenb[11]
*246 la_oenb[12]
*247 la_oenb[13]
*248 la_oenb[14]
*249 la_oenb[15]
*250 la_oenb[16]
*251 la_oenb[17]
*252 la_oenb[18]
*253 la_oenb[19]
*254 la_oenb[1]
*255 la_oenb[20]
*256 la_oenb[21]
*257 la_oenb[22]
*258 la_oenb[23]
*259 la_oenb[24]
*260 la_oenb[25]
*261 la_oenb[26]
*262 la_oenb[27]
*263 la_oenb[28]
*264 la_oenb[29]
*265 la_oenb[2]
*266 la_oenb[30]
*267 la_oenb[31]
*268 la_oenb[32]
*269 la_oenb[33]
*270 la_oenb[34]
*271 la_oenb[35]
*272 la_oenb[36]
*273 la_oenb[37]
*274 la_oenb[38]
*275 la_oenb[39]
*276 la_oenb[3]
*277 la_oenb[40]
*278 la_oenb[41]
*279 la_oenb[42]
*280 la_oenb[43]
*281 la_oenb[44]
*282 la_oenb[45]
*283 la_oenb[46]
*284 la_oenb[47]
*285 la_oenb[48]
*286 la_oenb[49]
*287 la_oenb[4]
*288 la_oenb[50]
*289 la_oenb[51]
*290 la_oenb[52]
*291 la_oenb[53]
*292 la_oenb[54]
*293 la_oenb[55]
*294 la_oenb[56]
*295 la_oenb[57]
*296 la_oenb[58]
*297 la_oenb[59]
*298 la_oenb[5]
*299 la_oenb[60]
*300 la_oenb[61]
*301 la_oenb[62]
*302 la_oenb[63]
*303 la_oenb[6]
*304 la_oenb[7]
*305 la_oenb[8]
*306 la_oenb[9]
*307 user_clock2
*308 user_irq[0]
*309 user_irq[1]
*310 user_irq[2]
*313 wb_clk_i
*314 wb_rst_i
*315 wbs_ack_o
*316 wbs_adr_i[0]
*317 wbs_adr_i[10]
*318 wbs_adr_i[11]
*319 wbs_adr_i[12]
*320 wbs_adr_i[13]
*321 wbs_adr_i[14]
*322 wbs_adr_i[15]
*323 wbs_adr_i[16]
*324 wbs_adr_i[17]
*325 wbs_adr_i[18]
*326 wbs_adr_i[19]
*327 wbs_adr_i[1]
*328 wbs_adr_i[20]
*329 wbs_adr_i[21]
*330 wbs_adr_i[22]
*331 wbs_adr_i[23]
*332 wbs_adr_i[24]
*333 wbs_adr_i[25]
*334 wbs_adr_i[26]
*335 wbs_adr_i[27]
*336 wbs_adr_i[28]
*337 wbs_adr_i[29]
*338 wbs_adr_i[2]
*339 wbs_adr_i[30]
*340 wbs_adr_i[31]
*341 wbs_adr_i[3]
*342 wbs_adr_i[4]
*343 wbs_adr_i[5]
*344 wbs_adr_i[6]
*345 wbs_adr_i[7]
*346 wbs_adr_i[8]
*347 wbs_adr_i[9]
*348 wbs_cyc_i
*349 wbs_dat_i[0]
*350 wbs_dat_i[10]
*351 wbs_dat_i[11]
*352 wbs_dat_i[12]
*353 wbs_dat_i[13]
*354 wbs_dat_i[14]
*355 wbs_dat_i[15]
*356 wbs_dat_i[16]
*357 wbs_dat_i[17]
*358 wbs_dat_i[18]
*359 wbs_dat_i[19]
*360 wbs_dat_i[1]
*361 wbs_dat_i[20]
*362 wbs_dat_i[21]
*363 wbs_dat_i[22]
*364 wbs_dat_i[23]
*365 wbs_dat_i[24]
*366 wbs_dat_i[25]
*367 wbs_dat_i[26]
*368 wbs_dat_i[27]
*369 wbs_dat_i[28]
*370 wbs_dat_i[29]
*371 wbs_dat_i[2]
*372 wbs_dat_i[30]
*373 wbs_dat_i[31]
*374 wbs_dat_i[3]
*375 wbs_dat_i[4]
*376 wbs_dat_i[5]
*377 wbs_dat_i[6]
*378 wbs_dat_i[7]
*379 wbs_dat_i[8]
*380 wbs_dat_i[9]
*381 wbs_dat_o[0]
*382 wbs_dat_o[10]
*383 wbs_dat_o[11]
*384 wbs_dat_o[12]
*385 wbs_dat_o[13]
*386 wbs_dat_o[14]
*387 wbs_dat_o[15]
*388 wbs_dat_o[16]
*389 wbs_dat_o[17]
*390 wbs_dat_o[18]
*391 wbs_dat_o[19]
*392 wbs_dat_o[1]
*393 wbs_dat_o[20]
*394 wbs_dat_o[21]
*395 wbs_dat_o[22]
*396 wbs_dat_o[23]
*397 wbs_dat_o[24]
*398 wbs_dat_o[25]
*399 wbs_dat_o[26]
*400 wbs_dat_o[27]
*401 wbs_dat_o[28]
*402 wbs_dat_o[29]
*403 wbs_dat_o[2]
*404 wbs_dat_o[30]
*405 wbs_dat_o[31]
*406 wbs_dat_o[3]
*407 wbs_dat_o[4]
*408 wbs_dat_o[5]
*409 wbs_dat_o[6]
*410 wbs_dat_o[7]
*411 wbs_dat_o[8]
*412 wbs_dat_o[9]
*413 wbs_sel_i[0]
*414 wbs_sel_i[1]
*415 wbs_sel_i[2]
*416 wbs_sel_i[3]
*417 wbs_stb_i
*418 wbs_we_i
*419 mprj

*PORTS
io_in[0] I
io_in[10] I
io_in[11] I
io_in[12] I
io_in[13] I
io_in[14] I
io_in[15] I
io_in[16] I
io_in[17] I
io_in[18] I
io_in[19] I
io_in[1] I
io_in[20] I
io_in[21] I
io_in[22] I
io_in[23] I
io_in[24] I
io_in[25] I
io_in[26] I
io_in[27] I
io_in[28] I
io_in[29] I
io_in[2] I
io_in[30] I
io_in[31] I
io_in[32] I
io_in[33] I
io_in[34] I
io_in[35] I
io_in[36] I
io_in[37] I
io_in[3] I
io_in[4] I
io_in[5] I
io_in[6] I
io_in[7] I
io_in[8] I
io_in[9] I
io_oeb[0] O
io_oeb[10] O
io_oeb[11] O
io_oeb[12] O
io_oeb[13] O
io_oeb[14] O
io_oeb[15] O
io_oeb[16] O
io_oeb[17] O
io_oeb[18] O
io_oeb[19] O
io_oeb[1] O
io_oeb[20] O
io_oeb[21] O
io_oeb[22] O
io_oeb[23] O
io_oeb[24] O
io_oeb[25] O
io_oeb[26] O
io_oeb[27] O
io_oeb[28] O
io_oeb[29] O
io_oeb[2] O
io_oeb[30] O
io_oeb[31] O
io_oeb[32] O
io_oeb[33] O
io_oeb[34] O
io_oeb[35] O
io_oeb[36] O
io_oeb[37] O
io_oeb[3] O
io_oeb[4] O
io_oeb[5] O
io_oeb[6] O
io_oeb[7] O
io_oeb[8] O
io_oeb[9] O
io_out[0] O
io_out[10] O
io_out[11] O
io_out[12] O
io_out[13] O
io_out[14] O
io_out[15] O
io_out[16] O
io_out[17] O
io_out[18] O
io_out[19] O
io_out[1] O
io_out[20] O
io_out[21] O
io_out[22] O
io_out[23] O
io_out[24] O
io_out[25] O
io_out[26] O
io_out[27] O
io_out[28] O
io_out[29] O
io_out[2] O
io_out[30] O
io_out[31] O
io_out[32] O
io_out[33] O
io_out[34] O
io_out[35] O
io_out[36] O
io_out[37] O
io_out[3] O
io_out[4] O
io_out[5] O
io_out[6] O
io_out[7] O
io_out[8] O
io_out[9] O
la_data_in[0] I
la_data_in[10] I
la_data_in[11] I
la_data_in[12] I
la_data_in[13] I
la_data_in[14] I
la_data_in[15] I
la_data_in[16] I
la_data_in[17] I
la_data_in[18] I
la_data_in[19] I
la_data_in[1] I
la_data_in[20] I
la_data_in[21] I
la_data_in[22] I
la_data_in[23] I
la_data_in[24] I
la_data_in[25] I
la_data_in[26] I
la_data_in[27] I
la_data_in[28] I
la_data_in[29] I
la_data_in[2] I
la_data_in[30] I
la_data_in[31] I
la_data_in[32] I
la_data_in[33] I
la_data_in[34] I
la_data_in[35] I
la_data_in[36] I
la_data_in[37] I
la_data_in[38] I
la_data_in[39] I
la_data_in[3] I
la_data_in[40] I
la_data_in[41] I
la_data_in[42] I
la_data_in[43] I
la_data_in[44] I
la_data_in[45] I
la_data_in[46] I
la_data_in[47] I
la_data_in[48] I
la_data_in[49] I
la_data_in[4] I
la_data_in[50] I
la_data_in[51] I
la_data_in[52] I
la_data_in[53] I
la_data_in[54] I
la_data_in[55] I
la_data_in[56] I
la_data_in[57] I
la_data_in[58] I
la_data_in[59] I
la_data_in[5] I
la_data_in[60] I
la_data_in[61] I
la_data_in[62] I
la_data_in[63] I
la_data_in[6] I
la_data_in[7] I
la_data_in[8] I
la_data_in[9] I
la_data_out[0] O
la_data_out[10] O
la_data_out[11] O
la_data_out[12] O
la_data_out[13] O
la_data_out[14] O
la_data_out[15] O
la_data_out[16] O
la_data_out[17] O
la_data_out[18] O
la_data_out[19] O
la_data_out[1] O
la_data_out[20] O
la_data_out[21] O
la_data_out[22] O
la_data_out[23] O
la_data_out[24] O
la_data_out[25] O
la_data_out[26] O
la_data_out[27] O
la_data_out[28] O
la_data_out[29] O
la_data_out[2] O
la_data_out[30] O
la_data_out[31] O
la_data_out[32] O
la_data_out[33] O
la_data_out[34] O
la_data_out[35] O
la_data_out[36] O
la_data_out[37] O
la_data_out[38] O
la_data_out[39] O
la_data_out[3] O
la_data_out[40] O
la_data_out[41] O
la_data_out[42] O
la_data_out[43] O
la_data_out[44] O
la_data_out[45] O
la_data_out[46] O
la_data_out[47] O
la_data_out[48] O
la_data_out[49] O
la_data_out[4] O
la_data_out[50] O
la_data_out[51] O
la_data_out[52] O
la_data_out[53] O
la_data_out[54] O
la_data_out[55] O
la_data_out[56] O
la_data_out[57] O
la_data_out[58] O
la_data_out[59] O
la_data_out[5] O
la_data_out[60] O
la_data_out[61] O
la_data_out[62] O
la_data_out[63] O
la_data_out[6] O
la_data_out[7] O
la_data_out[8] O
la_data_out[9] O
la_oenb[0] I
la_oenb[10] I
la_oenb[11] I
la_oenb[12] I
la_oenb[13] I
la_oenb[14] I
la_oenb[15] I
la_oenb[16] I
la_oenb[17] I
la_oenb[18] I
la_oenb[19] I
la_oenb[1] I
la_oenb[20] I
la_oenb[21] I
la_oenb[22] I
la_oenb[23] I
la_oenb[24] I
la_oenb[25] I
la_oenb[26] I
la_oenb[27] I
la_oenb[28] I
la_oenb[29] I
la_oenb[2] I
la_oenb[30] I
la_oenb[31] I
la_oenb[32] I
la_oenb[33] I
la_oenb[34] I
la_oenb[35] I
la_oenb[36] I
la_oenb[37] I
la_oenb[38] I
la_oenb[39] I
la_oenb[3] I
la_oenb[40] I
la_oenb[41] I
la_oenb[42] I
la_oenb[43] I
la_oenb[44] I
la_oenb[45] I
la_oenb[46] I
la_oenb[47] I
la_oenb[48] I
la_oenb[49] I
la_oenb[4] I
la_oenb[50] I
la_oenb[51] I
la_oenb[52] I
la_oenb[53] I
la_oenb[54] I
la_oenb[55] I
la_oenb[56] I
la_oenb[57] I
la_oenb[58] I
la_oenb[59] I
la_oenb[5] I
la_oenb[60] I
la_oenb[61] I
la_oenb[62] I
la_oenb[63] I
la_oenb[6] I
la_oenb[7] I
la_oenb[8] I
la_oenb[9] I
user_clock2 I
user_irq[0] O
user_irq[1] O
user_irq[2] O
wb_clk_i I
wb_rst_i I
wbs_ack_o O
wbs_adr_i[0] I
wbs_adr_i[10] I
wbs_adr_i[11] I
wbs_adr_i[12] I
wbs_adr_i[13] I
wbs_adr_i[14] I
wbs_adr_i[15] I
wbs_adr_i[16] I
wbs_adr_i[17] I
wbs_adr_i[18] I
wbs_adr_i[19] I
wbs_adr_i[1] I
wbs_adr_i[20] I
wbs_adr_i[21] I
wbs_adr_i[22] I
wbs_adr_i[23] I
wbs_adr_i[24] I
wbs_adr_i[25] I
wbs_adr_i[26] I
wbs_adr_i[27] I
wbs_adr_i[28] I
wbs_adr_i[29] I
wbs_adr_i[2] I
wbs_adr_i[30] I
wbs_adr_i[31] I
wbs_adr_i[3] I
wbs_adr_i[4] I
wbs_adr_i[5] I
wbs_adr_i[6] I
wbs_adr_i[7] I
wbs_adr_i[8] I
wbs_adr_i[9] I
wbs_cyc_i I
wbs_dat_i[0] I
wbs_dat_i[10] I
wbs_dat_i[11] I
wbs_dat_i[12] I
wbs_dat_i[13] I
wbs_dat_i[14] I
wbs_dat_i[15] I
wbs_dat_i[16] I
wbs_dat_i[17] I
wbs_dat_i[18] I
wbs_dat_i[19] I
wbs_dat_i[1] I
wbs_dat_i[20] I
wbs_dat_i[21] I
wbs_dat_i[22] I
wbs_dat_i[23] I
wbs_dat_i[24] I
wbs_dat_i[25] I
wbs_dat_i[26] I
wbs_dat_i[27] I
wbs_dat_i[28] I
wbs_dat_i[29] I
wbs_dat_i[2] I
wbs_dat_i[30] I
wbs_dat_i[31] I
wbs_dat_i[3] I
wbs_dat_i[4] I
wbs_dat_i[5] I
wbs_dat_i[6] I
wbs_dat_i[7] I
wbs_dat_i[8] I
wbs_dat_i[9] I
wbs_dat_o[0] O
wbs_dat_o[10] O
wbs_dat_o[11] O
wbs_dat_o[12] O
wbs_dat_o[13] O
wbs_dat_o[14] O
wbs_dat_o[15] O
wbs_dat_o[16] O
wbs_dat_o[17] O
wbs_dat_o[18] O
wbs_dat_o[19] O
wbs_dat_o[1] O
wbs_dat_o[20] O
wbs_dat_o[21] O
wbs_dat_o[22] O
wbs_dat_o[23] O
wbs_dat_o[24] O
wbs_dat_o[25] O
wbs_dat_o[26] O
wbs_dat_o[27] O
wbs_dat_o[28] O
wbs_dat_o[29] O
wbs_dat_o[2] O
wbs_dat_o[30] O
wbs_dat_o[31] O
wbs_dat_o[3] O
wbs_dat_o[4] O
wbs_dat_o[5] O
wbs_dat_o[6] O
wbs_dat_o[7] O
wbs_dat_o[8] O
wbs_dat_o[9] O
wbs_sel_i[0] I
wbs_sel_i[1] I
wbs_sel_i[2] I
wbs_sel_i[3] I
wbs_stb_i I
wbs_we_i I

*D_NET *2 0.0793978
*CONN
*P io_in[10] I
*I *419:io_in[5] I *D user_proj_example
*CAP
1 io_in[10] 0.00585434
2 *419:io_in[5] 0.000957324
3 *2:9 0.0338446
4 *2:7 0.0387416
*RES
1 io_in[10] *2:7 45.73 
2 *2:7 *2:9 238.412 
3 *2:9 *419:io_in[5] 10.466 
*END

*D_NET *3 0.123515
*CONN
*P io_in[11] I
*I *419:io_in[6] I *D user_proj_example
*CAP
1 io_in[11] 0.000984899
2 *419:io_in[6] 0.00584041
3 *3:9 0.0225345
4 *3:7 0.017679
5 *3:9 *5:9 0.0557449
6 *3:9 *38:9 0.0207311
*RES
1 io_in[11] *3:7 11.074 
2 *3:7 *3:9 232.94 
3 *3:9 *419:io_in[6] 45.122 
*END

*D_NET *4 0.0764881
*CONN
*P io_in[12] I
*I *419:io_in[7] I *D user_proj_example
*CAP
1 io_in[12] 0.00520787
2 *419:io_in[7] 0.00161745
3 *4:9 0.0330362
4 *4:7 0.0366266
*RES
1 io_in[12] *4:7 41.17 
2 *4:7 *4:9 227.468 
3 *4:9 *419:io_in[7] 15.026 
*END

*D_NET *5 0.32452
*CONN
*P io_in[13] I
*I *419:io_in[8] I *D user_proj_example
*CAP
1 io_in[13] 0.00100554
2 *419:io_in[8] 4.89031e-05
3 *5:13 0.0969293
4 *5:11 0.0968804
5 *5:9 0.00843007
6 *5:7 0.0094356
7 *5:9 *6:9 0.0450939
8 *5:9 *38:9 0.010951
9 *3:9 *5:9 0.0557449
*RES
1 io_in[13] *5:7 11.226 
2 *5:7 *5:9 241.547 
3 *5:9 *5:11 4.5 
4 *5:11 *5:13 334.777 
5 *5:13 *419:io_in[8] 9.285 
*END

*D_NET *6 0.335134
*CONN
*P io_in[14] I
*I *419:io_in[9] I *D user_proj_example
*CAP
1 io_in[14] 0.0012482
2 *419:io_in[9] 3.82148e-05
3 *6:13 0.0968355
4 *6:11 0.0967973
5 *6:9 0.0290708
6 *6:7 0.030319
7 *6:9 *38:9 0.0357316
8 *5:9 *6:9 0.0450939
*RES
1 io_in[14] *6:7 11.53 
2 *6:7 *6:9 354.716 
3 *6:9 *6:11 4.5 
4 *6:11 *6:13 334.65 
5 *6:13 *419:io_in[9] 9.20357 
*END

*D_NET *7 0.350863
*CONN
*P io_in[15] I
*I *419:io_in[10] I *D user_proj_example
*CAP
1 io_in[15] 0.000858356
2 *419:io_in[10] 2.47991e-05
3 *7:15 0.111984
4 *7:13 0.111959
5 *7:11 0.0625893
6 *7:9 0.0634477
*RES
1 io_in[15] *7:9 14.966 
2 *7:9 *7:11 453.598 
3 *7:11 *7:13 4.5 
4 *7:13 *7:15 331.341 
5 *7:15 *419:io_in[10] 9.12214 
*END

*D_NET *8 0.312905
*CONN
*P io_in[16] I
*I *419:io_in[11] I *D user_proj_example
*CAP
1 io_in[16] 0.00105484
2 *419:io_in[11] 4.89031e-05
3 *8:17 0.0845826
4 *8:15 0.0845337
5 *8:13 0.0707884
6 *8:11 0.0718432
7 *8:11 *91:23 5.33627e-05
*RES
1 io_in[16] *8:11 16.41 
2 *8:11 *8:13 512.715 
3 *8:13 *8:15 4.5 
4 *8:15 *8:17 293.159 
5 *8:17 *419:io_in[11] 9.285 
*END

*D_NET *9 0.307622
*CONN
*P io_in[17] I
*I *419:io_in[12] I *D user_proj_example
*CAP
1 io_in[17] 0.000947463
2 *419:io_in[12] 3.82148e-05
3 *9:17 0.073854
4 *9:15 0.0738158
5 *9:13 0.0790009
6 *9:11 0.0799483
7 *9:11 *91:23 1.76802e-05
*RES
1 io_in[17] *9:11 15.498 
2 *9:11 *9:13 572.076 
3 *9:13 *9:15 4.5 
4 *9:15 *9:17 255.932 
5 *9:17 *419:io_in[12] 9.20357 
*END

*D_NET *10 0.30239
*CONN
*P io_in[18] I
*I *419:io_in[13] I *D user_proj_example
*CAP
1 io_in[18] 0.00110852
2 *419:io_in[13] 2.47991e-05
3 *10:17 0.062855
4 *10:15 0.0628302
5 *10:13 0.0871958
6 *10:11 0.0883043
7 *10:11 *91:23 7.1204e-05
*RES
1 io_in[18] *10:11 16.866 
2 *10:11 *10:13 631.438 
3 *10:13 *10:15 4.5 
4 *10:15 *10:17 217.75 
5 *10:17 *419:io_in[13] 9.12214 
*END

*D_NET *11 0.367432
*CONN
*P io_in[19] I
*I *419:io_in[14] I *D user_proj_example
*CAP
1 io_in[19] 0.00100115
2 *419:io_in[14] 0.000107463
3 *11:17 0.0874407
4 *11:15 0.0873333
5 *11:13 0.0952565
6 *11:11 0.0962577
7 *11:11 *91:23 3.55215e-05
*RES
1 io_in[19] *11:11 15.954 
2 *11:11 *11:13 690.311 
3 *11:13 *11:15 4.5 
4 *11:15 *11:17 180.523 
5 *11:17 *419:io_in[14] 9.52929 
*END

*D_NET *13 0.293801
*CONN
*P io_in[20] I
*I *419:io_in[15] I *D user_proj_example
*CAP
1 io_in[20] 0.000858356
2 *419:io_in[15] 3.82148e-05
3 *13:15 0.0391924
4 *13:13 0.0391542
5 *13:11 0.103582
6 *13:9 0.10444
7 *13:15 *90:25 0.00653678
*RES
1 io_in[20] *13:9 14.966 
2 *13:9 *13:11 749.916 
3 *13:11 *13:13 4.5 
4 *13:13 *13:15 143.295 
5 *13:15 *419:io_in[15] 9.20357 
*END

*D_NET *34 0.0869016
*CONN
*P io_in[5] I
*I *419:io_in[0] I *D user_proj_example
*CAP
1 io_in[5] 0.00584067
2 *419:io_in[0] 0.000916044
3 *34:9 0.0376101
4 *34:7 0.0425348
*RES
1 io_in[5] *34:7 45.73 
2 *34:7 *34:9 265.772 
3 *34:9 *419:io_in[0] 10.466 
*END

*D_NET *35 0.108454
*CONN
*P io_in[6] I
*I *419:io_in[1] I *D user_proj_example
*CAP
1 io_in[6] 0.00106049
2 *419:io_in[1] 0.00566888
3 *35:9 0.0360091
4 *35:7 0.0314007
5 *35:9 *38:9 0.0343144
*RES
1 io_in[6] *35:7 11.53 
2 *35:7 *35:9 260.3 
3 *35:9 *419:io_in[1] 44.666 
*END

*D_NET *36 0.0839786
*CONN
*P io_in[7] I
*I *419:io_in[2] I *D user_proj_example
*CAP
1 io_in[7] 0.00522154
2 *419:io_in[2] 0.00156276
3 *36:9 0.0367677
4 *36:7 0.0404265
*RES
1 io_in[7] *36:7 41.17 
2 *36:7 *36:9 254.828 
3 *36:9 *419:io_in[2] 15.026 
*END

*D_NET *37 0.0824571
*CONN
*P io_in[8] I
*I *419:io_in[3] I *D user_proj_example
*CAP
1 io_in[8] 0.00491199
2 *419:io_in[3] 0.00189993
3 *37:9 0.0363165
4 *37:7 0.0393286
*RES
1 io_in[8] *37:7 38.89 
2 *37:7 *37:9 249.356 
3 *37:9 *419:io_in[3] 17.306 
*END

*D_NET *38 0.146313
*CONN
*P io_in[9] I
*I *419:io_in[4] I *D user_proj_example
*CAP
1 io_in[9] 0.00123963
2 *419:io_in[4] 0.00701326
3 *38:9 0.021053
4 *38:7 0.0152794
5 *3:9 *38:9 0.0207311
6 *5:9 *38:9 0.010951
7 *6:9 *38:9 0.0357316
8 *35:9 *38:9 0.0343144
*RES
1 io_in[9] *38:7 11.378 
2 *38:7 *38:9 243.884 
3 *38:9 *419:io_in[4] 44.818 
*END

*D_NET *90 0.556489
*CONN
*P io_out[21] O
*I *419:io_oeb[0] O *D user_proj_example
*I *419:io_out[0] O *D user_proj_example
*CAP
1 io_out[21] 0.000983262
2 *419:io_oeb[0] 0.00409912
3 *419:io_out[0] 0.00388336
4 *90:29 0.104394
5 *90:27 0.103411
6 *90:25 0.166468
7 *90:23 0.166684
8 io_out[21] *91:23 2.95707e-05
9 *13:15 *90:25 0.00653678
*RES
1 *419:io_out[0] *419:io_oeb[0] 34.536 
2 *419:io_oeb[0] *90:23 10.463 
3 *90:23 *90:25 224.114 
4 *90:25 *90:27 4.5 
5 *90:27 *90:29 748.695 
6 *90:29 io_out[21] 15.802 
*END

*D_NET *91 0.784948
*CONN
*P io_out[22] O
*I *419:io_oeb[1] O *D user_proj_example
*I *419:io_out[1] O *D user_proj_example
*CAP
1 io_out[22] 0.000999175
2 *419:io_oeb[1] 0.000511846
3 *419:io_out[1] 0.00337039
4 *91:23 0.0457535
5 *91:21 0.0447543
6 *91:19 0.0534449
7 *91:9 0.0573271
8 *91:19 *92:9 0.00801691
9 *91:19 *92:19 0.255188
10 *91:19 *93:9 0.00190058
11 *91:19 *93:19 0.0528038
12 *91:23 *92:23 0.260669
13 io_out[21] *91:23 2.95707e-05
14 *8:11 *91:23 5.33627e-05
15 *9:11 *91:23 1.76802e-05
16 *10:11 *91:23 7.1204e-05
17 *11:11 *91:23 3.55215e-05
*RES
1 *419:io_out[1] *91:9 26.958 
2 *91:9 *419:io_oeb[1] 7.122 
3 *91:9 *91:19 689.852 
4 *91:19 *91:21 4.5 
5 *91:21 *91:23 628.9 
6 *91:23 io_out[22] 11.378 
*END

*D_NET *92 0.762173
*CONN
*P io_out[23] O
*I *419:io_oeb[2] O *D user_proj_example
*I *419:io_out[2] O *D user_proj_example
*CAP
1 io_out[23] 0.00102104
2 *419:io_oeb[2] 0.000496794
3 *419:io_out[2] 0.00196239
4 *92:23 0.0585592
5 *92:21 0.0575381
6 *92:19 0.0461745
7 *92:9 0.0486337
8 *92:19 *93:9 0.000734556
9 *92:19 *93:19 0.00145362
10 *92:19 *94:9 0.000950289
11 *92:19 *94:19 0.0207738
12 *91:19 *92:9 0.00801691
13 *91:19 *92:19 0.255188
14 *91:23 *92:23 0.260669
*RES
1 *419:io_out[2] *92:9 27.11 
2 *92:9 *419:io_oeb[2] 7.274 
3 *92:9 *92:19 630.42 
4 *92:19 *92:21 4.5 
5 *92:21 *92:23 718.884 
6 *92:23 io_out[23] 11.53 
*END

*D_NET *93 0.637983
*CONN
*P io_out[24] O
*I *419:io_oeb[3] O *D user_proj_example
*I *419:io_out[3] O *D user_proj_example
*CAP
1 io_out[24] 0.107136
2 *419:io_oeb[3] 0.000467236
3 *419:io_out[3] 0.00461481
4 *93:21 0.107136
5 *93:19 0.0845246
6 *93:9 0.0896066
7 *93:19 *94:9 0.00823186
8 *93:19 *94:19 0.179373
9 *91:19 *93:9 0.00190058
10 *91:19 *93:19 0.0528038
11 *92:19 *93:9 0.000734556
12 *92:19 *93:19 0.00145362
*RES
1 *419:io_out[3] *93:9 26.958 
2 *93:9 *419:io_oeb[3] 7.122 
3 *93:9 *93:19 547.428 
4 *93:19 *93:21 4.5 
5 *93:21 io_out[24] 763.382 
*END

*D_NET *94 0.58299
*CONN
*P io_out[25] O
*I *419:io_oeb[4] O *D user_proj_example
*I *419:io_out[4] O *D user_proj_example
*CAP
1 io_out[25] 0.107178
2 *419:io_oeb[4] 0.000508532
3 *419:io_out[4] 0.00193392
4 *94:21 0.107178
5 *94:19 0.00771428
6 *94:9 0.0101567
7 *94:19 *95:9 0.0082276
8 *94:19 *95:19 0.130765
9 *92:19 *94:9 0.000950289
10 *92:19 *94:19 0.0207738
11 *93:19 *94:9 0.00823186
12 *93:19 *94:19 0.179373
*RES
1 *419:io_out[4] *94:9 27.11 
2 *94:9 *419:io_oeb[4] 7.274 
3 *94:9 *94:19 430.692 
4 *94:19 *94:21 4.5 
5 *94:21 io_out[25] 763.534 
*END

*D_NET *95 0.463567
*CONN
*P io_out[26] O
*I *419:io_oeb[5] O *D user_proj_example
*I *419:io_out[5] O *D user_proj_example
*CAP
1 io_out[26] 0.107214
2 *419:io_oeb[5] 0.000544559
3 *419:io_out[5] 0.00197356
4 *95:21 0.107214
5 *95:19 0.00738027
6 *95:9 0.00989838
7 *95:19 *96:9 0.00823065
8 *95:19 *96:19 0.0821203
9 *94:19 *95:9 0.0082276
10 *94:19 *95:19 0.130765
*RES
1 *419:io_out[5] *95:9 27.262 
2 *95:9 *419:io_oeb[5] 7.426 
3 *95:9 *95:19 313.956 
4 *95:19 *95:21 4.5 
5 *95:21 io_out[26] 763.686 
*END

*D_NET *96 0.365982
*CONN
*P io_out[27] O
*I *419:io_oeb[6] O *D user_proj_example
*I *419:io_out[6] O *D user_proj_example
*CAP
1 io_out[27] 0.107248
2 *419:io_oeb[6] 0.000578879
3 *419:io_out[6] 0.00200529
4 *96:21 0.107248
5 *96:19 0.00710153
6 *96:9 0.0096857
7 *96:19 *97:9 0.00828538
8 *96:19 *97:19 0.0334788
9 *95:19 *96:9 0.00823065
10 *95:19 *96:19 0.0821203
*RES
1 *419:io_out[6] *96:9 27.414 
2 *96:9 *419:io_oeb[6] 7.578 
3 *96:9 *96:19 197.22 
4 *96:19 *96:21 4.5 
5 *96:21 io_out[27] 763.838 
*END

*D_NET *97 0.272904
*CONN
*P io_out[28] O
*I *419:io_oeb[7] O *D user_proj_example
*I *419:io_out[7] O *D user_proj_example
*CAP
1 io_out[28] 0.107282
2 *419:io_oeb[7] 0.000613199
3 *419:io_out[7] 0.00199116
4 *97:21 0.107282
5 *97:19 0.00568309
6 *97:9 0.00828745
7 *96:19 *97:9 0.00828538
8 *96:19 *97:19 0.0334788
*RES
1 *419:io_out[7] *97:9 27.566 
2 *97:9 *419:io_oeb[7] 7.73 
3 *97:9 *97:19 80.484 
4 *97:19 *97:21 4.5 
5 *97:21 io_out[28] 763.99 
*END

*D_NET *98 0.0194453
*CONN
*P io_out[29] O
*I *419:io_oeb[8] O *D user_proj_example
*I *419:io_out[8] O *D user_proj_example
*CAP
1 io_out[29] 0.00057263
2 *419:io_oeb[8] 0.00277072
3 *419:io_out[8] 0.00343046
4 *98:29 0.00629008
5 *98:25 0.00637719
6 *419:io_oeb[8] io_out[30] 4.2006e-06
*RES
1 *419:io_out[8] *419:io_oeb[8] 28.836 
2 *419:io_out[8] *98:25 16.8075 
3 *98:25 *98:29 45.8847 
4 *98:29 io_out[29] 4.142 
*END

*D_NET *100 0.0201589
*CONN
*P io_out[30] O
*I *419:io_oeb[9] O *D user_proj_example
*I *419:io_out[9] O *D user_proj_example
*CAP
1 io_out[30] 0.000278313
2 *419:io_oeb[9] 0.00276501
3 *419:io_out[9] 0.00341406
4 *100:31 0.00665478
5 *100:25 0.00702551
6 *419:io_oeb[9] io_out[31] 1.7065e-05
7 *419:io_oeb[8] io_out[30] 4.2006e-06
*RES
1 *419:io_out[9] *419:io_oeb[9] 28.836 
2 *419:io_out[9] *100:25 16.726 
3 *100:25 *100:31 48.8828 
4 *100:31 io_out[30] 10.8104 
*END

*D_NET *101 0.0203823
*CONN
*P io_out[31] O
*I *419:io_oeb[10] O *D user_proj_example
*I *419:io_out[10] O *D user_proj_example
*CAP
1 io_out[31] 0.000614028
2 *419:io_oeb[10] 0.00269258
3 *419:io_out[10] 0
4 *101:21 0.00704031
5 *101:19 0.00686976
6 *101:4 0.00313606
7 *419:io_oeb[10] io_out[32] 1.25478e-05
8 *419:io_oeb[9] io_out[31] 1.7065e-05
*RES
1 *419:io_out[10] *101:4 4.5 
2 *101:4 *419:io_oeb[10] 24.336 
3 *101:4 *101:19 10.4814 
4 *101:19 *101:21 46.246 
5 *101:21 io_out[31] 16.5252 
*END

*D_NET *102 0.0209628
*CONN
*P io_out[32] O
*I *419:io_oeb[11] O *D user_proj_example
*I *419:io_out[11] O *D user_proj_example
*CAP
1 io_out[32] 0.000626296
2 *419:io_oeb[11] 0.00272456
3 *419:io_out[11] 0
4 *102:21 0.00727703
5 *102:19 0.00712027
6 *102:4 0.0031941
7 *419:io_oeb[11] io_out[33] 8.03066e-06
8 *419:io_oeb[10] io_out[32] 1.25478e-05
*RES
1 *419:io_out[11] *102:4 4.5 
2 *102:4 *419:io_oeb[11] 24.336 
3 *102:4 *102:19 10.6442 
4 *102:19 *102:21 47.956 
5 *102:21 io_out[32] 16.4763 
*END

*D_NET *103 0.021534
*CONN
*P io_out[33] O
*I *419:io_oeb[12] O *D user_proj_example
*I *419:io_out[12] O *D user_proj_example
*CAP
1 io_out[33] 0.000611877
2 *419:io_oeb[12] 0.00277072
3 *419:io_out[12] 0.00340207
4 *103:27 0.00735881
5 *103:25 0.00737828
6 *419:io_oeb[12] io_out[34] 4.2006e-06
7 *419:io_oeb[11] io_out[33] 8.03066e-06
*RES
1 *419:io_out[12] *419:io_oeb[12] 28.836 
2 *419:io_out[12] *103:25 16.726 
3 *103:25 *103:27 48.6889 
4 *103:27 io_out[33] 16.4275 
*END

*D_NET *104 0.022983
*CONN
*P io_out[34] O
*I *419:io_oeb[13] O *D user_proj_example
*I *419:io_out[13] O *D user_proj_example
*CAP
1 io_out[34] 0.000595588
2 *419:io_oeb[13] 0.0027006
3 *419:io_out[13] 0.00368989
4 *104:27 0.00779743
5 *104:25 0.00819113
6 *419:io_oeb[13] io_out[35] 4.2006e-06
7 *419:io_oeb[12] io_out[34] 4.2006e-06
*RES
1 *419:io_out[13] *419:io_oeb[13] 28.836 
2 *419:io_out[13] *104:25 15.6675 
3 *104:25 *104:27 51.6203 
4 *104:27 io_out[34] 16.3786 
*END

*D_NET *105 0.0224996
*CONN
*P io_out[35] O
*I *419:io_oeb[14] O *D user_proj_example
*I *419:io_out[14] O *D user_proj_example
*CAP
1 io_out[35] 0.000613274
2 *419:io_oeb[14] 0.00276811
3 *419:io_out[14] 0
4 *105:21 0.00800151
5 *105:19 0.00785777
6 *105:4 0.00323765
7 *419:io_oeb[14] io_out[36] 1.7065e-05
8 *419:io_oeb[13] io_out[35] 4.2006e-06
*RES
1 *419:io_out[14] *105:4 4.5 
2 *105:4 *419:io_oeb[14] 24.336 
3 *105:4 *105:19 10.6442 
4 *105:19 *105:21 53.5746 
5 *105:21 io_out[35] 16.3786 
*END

*D_NET *106 0.0233261
*CONN
*P io_out[36] O
*I *419:io_oeb[15] O *D user_proj_example
*I *419:io_out[15] O *D user_proj_example
*CAP
1 io_out[36] 0.000707135
2 *419:io_oeb[15] 0.00275834
3 *419:io_out[15] 0.00340739
4 *106:27 0.00824715
5 *106:25 0.00818906
6 *419:io_oeb[14] io_out[36] 1.7065e-05
*RES
1 *419:io_out[15] *419:io_oeb[15] 28.836 
2 *419:io_out[15] *106:25 16.726 
3 *106:25 *106:27 54.0631 
4 *106:27 io_out[36] 16.5252 
*END

*D_NET *313 0.0173595
*CONN
*P wb_clk_i I
*I *419:wb_clk_i I *D user_proj_example
*CAP
1 wb_clk_i 0.000140838
2 *419:wb_clk_i 0.000263181
3 *313:13 0.00452678
4 *313:11 0.00440443
5 *313:13 *314:11 0.00235156
6 *313:13 *413:15 0.00139494
7 *313:13 *414:13 0.00209303
8 *313:13 *415:13 0.0021847
*RES
1 wb_clk_i *313:11 5.602 
2 *313:11 *313:13 49.172 
3 *313:13 *419:wb_clk_i 5.906 
*END

*D_NET *314 0.0912418
*CONN
*P wb_rst_i I
*I *419:wb_rst_i I *D user_proj_example
*CAP
1 wb_rst_i 6.97562e-05
2 *419:wb_rst_i 0.000266565
3 *314:11 0.0130681
4 *314:9 0.0128713
5 *314:11 *413:15 0.0626145
6 *313:13 *314:11 0.00235156
*RES
1 wb_rst_i *314:9 4.918 
2 *314:9 *314:11 172.748 
3 *314:11 *419:wb_rst_i 6.286 
*END

*D_NET *413 0.19458
*CONN
*P wbs_sel_i[0] I
*I *419:wbs_sel_i[0] I *D user_proj_example
*CAP
1 wbs_sel_i[0] 0.000209156
2 *419:wbs_sel_i[0] 0.000288434
3 *413:15 0.00940968
4 *413:13 0.0093304
5 *413:15 *414:13 0.111333
6 *313:13 *413:15 0.00139494
7 *314:11 *413:15 0.0626145
*RES
1 wbs_sel_i[0] *413:13 6.134 
2 *413:13 *413:15 277.02 
3 *413:15 *419:wbs_sel_i[0] 6.438 
*END

*D_NET *414 0.292435
*CONN
*P wbs_sel_i[1] I
*I *419:wbs_sel_i[1] I *D user_proj_example
*CAP
1 wbs_sel_i[1] 0.000124037
2 *419:wbs_sel_i[1] 0.000310303
3 *414:13 0.00950518
4 *414:11 0.00931891
5 *414:13 *415:13 0.15975
6 *313:13 *414:13 0.00209303
7 *413:15 *414:13 0.111333
*RES
1 wbs_sel_i[1] *414:11 5.298 
2 *414:11 *414:13 394.06 
3 *414:13 *419:wbs_sel_i[1] 6.59 
*END

*D_NET *415 0.390423
*CONN
*P wbs_sel_i[2] I
*I *419:wbs_sel_i[2] I *D user_proj_example
*CAP
1 wbs_sel_i[2] 0.000158728
2 *419:wbs_sel_i[2] 0.000190024
3 *415:13 0.00984259
4 *415:11 0.00981129
5 *415:13 *416:13 0.208485
6 *313:13 *415:13 0.0021847
7 *414:13 *415:13 0.15975
*RES
1 wbs_sel_i[2] *415:11 5.45 
2 *415:11 *415:13 511.1 
3 *415:13 *419:wbs_sel_i[2] 5.754 
*END

*D_NET *416 0.31383
*CONN
*P wbs_sel_i[3] I
*I *419:wbs_sel_i[3] I *D user_proj_example
*CAP
1 wbs_sel_i[3] 0.000193419
2 *419:wbs_sel_i[3] 0.000211893
3 *416:13 0.0524788
4 *416:11 0.0524603
5 *415:13 *416:13 0.208485
*RES
1 wbs_sel_i[3] *416:11 5.602 
2 *416:11 *416:13 627.228 
3 *416:13 *419:wbs_sel_i[3] 5.906 
*END
