*SPEF "ieee 1481-1999"
*DESIGN "user_project_wrapper"
*DATE "11:11:11 Fri 11 11, 1111"
*VENDOR "OpenRCX"
*PROGRAM "Parallel Extraction"
*VERSION "1.0"
*DESIGN_FLOW "NAME_SCOPE LOCAL" "PIN_CAP NONE"
*DIVIDER /
*DELIMITER :
*BUS_DELIMITER []
*T_UNIT 1 NS
*C_UNIT 1 PF
*R_UNIT 1 OHM
*L_UNIT 1 HENRY

*NAME_MAP
*1 io_in[0]
*2 io_in[10]
*3 io_in[11]
*4 io_in[12]
*5 io_in[13]
*6 io_in[14]
*7 io_in[15]
*8 io_in[16]
*9 io_in[17]
*10 io_in[18]
*11 io_in[19]
*12 io_in[1]
*13 io_in[20]
*14 io_in[21]
*15 io_in[22]
*16 io_in[23]
*17 io_in[24]
*18 io_in[25]
*19 io_in[26]
*20 io_in[27]
*21 io_in[28]
*22 io_in[29]
*23 io_in[2]
*24 io_in[30]
*25 io_in[31]
*26 io_in[32]
*27 io_in[33]
*28 io_in[34]
*29 io_in[35]
*30 io_in[36]
*31 io_in[37]
*32 io_in[3]
*33 io_in[4]
*34 io_in[5]
*35 io_in[6]
*36 io_in[7]
*37 io_in[8]
*38 io_in[9]
*39 io_oeb[0]
*40 io_oeb[10]
*41 io_oeb[11]
*42 io_oeb[12]
*43 io_oeb[13]
*44 io_oeb[14]
*45 io_oeb[15]
*46 io_oeb[16]
*47 io_oeb[17]
*48 io_oeb[18]
*49 io_oeb[19]
*50 io_oeb[1]
*51 io_oeb[20]
*52 io_oeb[21]
*53 io_oeb[22]
*54 io_oeb[23]
*55 io_oeb[24]
*56 io_oeb[25]
*57 io_oeb[26]
*58 io_oeb[27]
*59 io_oeb[28]
*60 io_oeb[29]
*61 io_oeb[2]
*62 io_oeb[30]
*63 io_oeb[31]
*64 io_oeb[32]
*65 io_oeb[33]
*66 io_oeb[34]
*67 io_oeb[35]
*68 io_oeb[36]
*69 io_oeb[37]
*70 io_oeb[3]
*71 io_oeb[4]
*72 io_oeb[5]
*73 io_oeb[6]
*74 io_oeb[7]
*75 io_oeb[8]
*76 io_oeb[9]
*77 io_out[0]
*78 io_out[10]
*79 io_out[11]
*80 io_out[12]
*81 io_out[13]
*82 io_out[14]
*83 io_out[15]
*84 io_out[16]
*85 io_out[17]
*86 io_out[18]
*87 io_out[19]
*88 io_out[1]
*89 io_out[20]
*90 io_out[21]
*91 io_out[22]
*92 io_out[23]
*93 io_out[24]
*94 io_out[25]
*95 io_out[26]
*96 io_out[27]
*97 io_out[28]
*98 io_out[29]
*99 io_out[2]
*100 io_out[30]
*101 io_out[31]
*102 io_out[32]
*103 io_out[33]
*104 io_out[34]
*105 io_out[35]
*106 io_out[36]
*107 io_out[37]
*108 io_out[3]
*109 io_out[4]
*110 io_out[5]
*111 io_out[6]
*112 io_out[7]
*113 io_out[8]
*114 io_out[9]
*115 la_data_in[0]
*116 la_data_in[10]
*117 la_data_in[11]
*118 la_data_in[12]
*119 la_data_in[13]
*120 la_data_in[14]
*121 la_data_in[15]
*122 la_data_in[16]
*123 la_data_in[17]
*124 la_data_in[18]
*125 la_data_in[19]
*126 la_data_in[1]
*127 la_data_in[20]
*128 la_data_in[21]
*129 la_data_in[22]
*130 la_data_in[23]
*131 la_data_in[24]
*132 la_data_in[25]
*133 la_data_in[26]
*134 la_data_in[27]
*135 la_data_in[28]
*136 la_data_in[29]
*137 la_data_in[2]
*138 la_data_in[30]
*139 la_data_in[31]
*140 la_data_in[32]
*141 la_data_in[33]
*142 la_data_in[34]
*143 la_data_in[35]
*144 la_data_in[36]
*145 la_data_in[37]
*146 la_data_in[38]
*147 la_data_in[39]
*148 la_data_in[3]
*149 la_data_in[40]
*150 la_data_in[41]
*151 la_data_in[42]
*152 la_data_in[43]
*153 la_data_in[44]
*154 la_data_in[45]
*155 la_data_in[46]
*156 la_data_in[47]
*157 la_data_in[48]
*158 la_data_in[49]
*159 la_data_in[4]
*160 la_data_in[50]
*161 la_data_in[51]
*162 la_data_in[52]
*163 la_data_in[53]
*164 la_data_in[54]
*165 la_data_in[55]
*166 la_data_in[56]
*167 la_data_in[57]
*168 la_data_in[58]
*169 la_data_in[59]
*170 la_data_in[5]
*171 la_data_in[60]
*172 la_data_in[61]
*173 la_data_in[62]
*174 la_data_in[63]
*175 la_data_in[6]
*176 la_data_in[7]
*177 la_data_in[8]
*178 la_data_in[9]
*179 la_data_out[0]
*180 la_data_out[10]
*181 la_data_out[11]
*182 la_data_out[12]
*183 la_data_out[13]
*184 la_data_out[14]
*185 la_data_out[15]
*186 la_data_out[16]
*187 la_data_out[17]
*188 la_data_out[18]
*189 la_data_out[19]
*190 la_data_out[1]
*191 la_data_out[20]
*192 la_data_out[21]
*193 la_data_out[22]
*194 la_data_out[23]
*195 la_data_out[24]
*196 la_data_out[25]
*197 la_data_out[26]
*198 la_data_out[27]
*199 la_data_out[28]
*200 la_data_out[29]
*201 la_data_out[2]
*202 la_data_out[30]
*203 la_data_out[31]
*204 la_data_out[32]
*205 la_data_out[33]
*206 la_data_out[34]
*207 la_data_out[35]
*208 la_data_out[36]
*209 la_data_out[37]
*210 la_data_out[38]
*211 la_data_out[39]
*212 la_data_out[3]
*213 la_data_out[40]
*214 la_data_out[41]
*215 la_data_out[42]
*216 la_data_out[43]
*217 la_data_out[44]
*218 la_data_out[45]
*219 la_data_out[46]
*220 la_data_out[47]
*221 la_data_out[48]
*222 la_data_out[49]
*223 la_data_out[4]
*224 la_data_out[50]
*225 la_data_out[51]
*226 la_data_out[52]
*227 la_data_out[53]
*228 la_data_out[54]
*229 la_data_out[55]
*230 la_data_out[56]
*231 la_data_out[57]
*232 la_data_out[58]
*233 la_data_out[59]
*234 la_data_out[5]
*235 la_data_out[60]
*236 la_data_out[61]
*237 la_data_out[62]
*238 la_data_out[63]
*239 la_data_out[6]
*240 la_data_out[7]
*241 la_data_out[8]
*242 la_data_out[9]
*243 la_oenb[0]
*244 la_oenb[10]
*245 la_oenb[11]
*246 la_oenb[12]
*247 la_oenb[13]
*248 la_oenb[14]
*249 la_oenb[15]
*250 la_oenb[16]
*251 la_oenb[17]
*252 la_oenb[18]
*253 la_oenb[19]
*254 la_oenb[1]
*255 la_oenb[20]
*256 la_oenb[21]
*257 la_oenb[22]
*258 la_oenb[23]
*259 la_oenb[24]
*260 la_oenb[25]
*261 la_oenb[26]
*262 la_oenb[27]
*263 la_oenb[28]
*264 la_oenb[29]
*265 la_oenb[2]
*266 la_oenb[30]
*267 la_oenb[31]
*268 la_oenb[32]
*269 la_oenb[33]
*270 la_oenb[34]
*271 la_oenb[35]
*272 la_oenb[36]
*273 la_oenb[37]
*274 la_oenb[38]
*275 la_oenb[39]
*276 la_oenb[3]
*277 la_oenb[40]
*278 la_oenb[41]
*279 la_oenb[42]
*280 la_oenb[43]
*281 la_oenb[44]
*282 la_oenb[45]
*283 la_oenb[46]
*284 la_oenb[47]
*285 la_oenb[48]
*286 la_oenb[49]
*287 la_oenb[4]
*288 la_oenb[50]
*289 la_oenb[51]
*290 la_oenb[52]
*291 la_oenb[53]
*292 la_oenb[54]
*293 la_oenb[55]
*294 la_oenb[56]
*295 la_oenb[57]
*296 la_oenb[58]
*297 la_oenb[59]
*298 la_oenb[5]
*299 la_oenb[60]
*300 la_oenb[61]
*301 la_oenb[62]
*302 la_oenb[63]
*303 la_oenb[6]
*304 la_oenb[7]
*305 la_oenb[8]
*306 la_oenb[9]
*307 user_clock2
*308 user_irq[0]
*309 user_irq[1]
*310 user_irq[2]
*313 wb_clk_i
*314 wb_rst_i
*315 wbs_ack_o
*316 wbs_adr_i[0]
*317 wbs_adr_i[10]
*318 wbs_adr_i[11]
*319 wbs_adr_i[12]
*320 wbs_adr_i[13]
*321 wbs_adr_i[14]
*322 wbs_adr_i[15]
*323 wbs_adr_i[16]
*324 wbs_adr_i[17]
*325 wbs_adr_i[18]
*326 wbs_adr_i[19]
*327 wbs_adr_i[1]
*328 wbs_adr_i[20]
*329 wbs_adr_i[21]
*330 wbs_adr_i[22]
*331 wbs_adr_i[23]
*332 wbs_adr_i[24]
*333 wbs_adr_i[25]
*334 wbs_adr_i[26]
*335 wbs_adr_i[27]
*336 wbs_adr_i[28]
*337 wbs_adr_i[29]
*338 wbs_adr_i[2]
*339 wbs_adr_i[30]
*340 wbs_adr_i[31]
*341 wbs_adr_i[3]
*342 wbs_adr_i[4]
*343 wbs_adr_i[5]
*344 wbs_adr_i[6]
*345 wbs_adr_i[7]
*346 wbs_adr_i[8]
*347 wbs_adr_i[9]
*348 wbs_cyc_i
*349 wbs_dat_i[0]
*350 wbs_dat_i[10]
*351 wbs_dat_i[11]
*352 wbs_dat_i[12]
*353 wbs_dat_i[13]
*354 wbs_dat_i[14]
*355 wbs_dat_i[15]
*356 wbs_dat_i[16]
*357 wbs_dat_i[17]
*358 wbs_dat_i[18]
*359 wbs_dat_i[19]
*360 wbs_dat_i[1]
*361 wbs_dat_i[20]
*362 wbs_dat_i[21]
*363 wbs_dat_i[22]
*364 wbs_dat_i[23]
*365 wbs_dat_i[24]
*366 wbs_dat_i[25]
*367 wbs_dat_i[26]
*368 wbs_dat_i[27]
*369 wbs_dat_i[28]
*370 wbs_dat_i[29]
*371 wbs_dat_i[2]
*372 wbs_dat_i[30]
*373 wbs_dat_i[31]
*374 wbs_dat_i[3]
*375 wbs_dat_i[4]
*376 wbs_dat_i[5]
*377 wbs_dat_i[6]
*378 wbs_dat_i[7]
*379 wbs_dat_i[8]
*380 wbs_dat_i[9]
*381 wbs_dat_o[0]
*382 wbs_dat_o[10]
*383 wbs_dat_o[11]
*384 wbs_dat_o[12]
*385 wbs_dat_o[13]
*386 wbs_dat_o[14]
*387 wbs_dat_o[15]
*388 wbs_dat_o[16]
*389 wbs_dat_o[17]
*390 wbs_dat_o[18]
*391 wbs_dat_o[19]
*392 wbs_dat_o[1]
*393 wbs_dat_o[20]
*394 wbs_dat_o[21]
*395 wbs_dat_o[22]
*396 wbs_dat_o[23]
*397 wbs_dat_o[24]
*398 wbs_dat_o[25]
*399 wbs_dat_o[26]
*400 wbs_dat_o[27]
*401 wbs_dat_o[28]
*402 wbs_dat_o[29]
*403 wbs_dat_o[2]
*404 wbs_dat_o[30]
*405 wbs_dat_o[31]
*406 wbs_dat_o[3]
*407 wbs_dat_o[4]
*408 wbs_dat_o[5]
*409 wbs_dat_o[6]
*410 wbs_dat_o[7]
*411 wbs_dat_o[8]
*412 wbs_dat_o[9]
*413 wbs_sel_i[0]
*414 wbs_sel_i[1]
*415 wbs_sel_i[2]
*416 wbs_sel_i[3]
*417 wbs_stb_i
*418 wbs_we_i
*419 mprj

*PORTS
io_in[0] I
io_in[10] I
io_in[11] I
io_in[12] I
io_in[13] I
io_in[14] I
io_in[15] I
io_in[16] I
io_in[17] I
io_in[18] I
io_in[19] I
io_in[1] I
io_in[20] I
io_in[21] I
io_in[22] I
io_in[23] I
io_in[24] I
io_in[25] I
io_in[26] I
io_in[27] I
io_in[28] I
io_in[29] I
io_in[2] I
io_in[30] I
io_in[31] I
io_in[32] I
io_in[33] I
io_in[34] I
io_in[35] I
io_in[36] I
io_in[37] I
io_in[3] I
io_in[4] I
io_in[5] I
io_in[6] I
io_in[7] I
io_in[8] I
io_in[9] I
io_oeb[0] O
io_oeb[10] O
io_oeb[11] O
io_oeb[12] O
io_oeb[13] O
io_oeb[14] O
io_oeb[15] O
io_oeb[16] O
io_oeb[17] O
io_oeb[18] O
io_oeb[19] O
io_oeb[1] O
io_oeb[20] O
io_oeb[21] O
io_oeb[22] O
io_oeb[23] O
io_oeb[24] O
io_oeb[25] O
io_oeb[26] O
io_oeb[27] O
io_oeb[28] O
io_oeb[29] O
io_oeb[2] O
io_oeb[30] O
io_oeb[31] O
io_oeb[32] O
io_oeb[33] O
io_oeb[34] O
io_oeb[35] O
io_oeb[36] O
io_oeb[37] O
io_oeb[3] O
io_oeb[4] O
io_oeb[5] O
io_oeb[6] O
io_oeb[7] O
io_oeb[8] O
io_oeb[9] O
io_out[0] O
io_out[10] O
io_out[11] O
io_out[12] O
io_out[13] O
io_out[14] O
io_out[15] O
io_out[16] O
io_out[17] O
io_out[18] O
io_out[19] O
io_out[1] O
io_out[20] O
io_out[21] O
io_out[22] O
io_out[23] O
io_out[24] O
io_out[25] O
io_out[26] O
io_out[27] O
io_out[28] O
io_out[29] O
io_out[2] O
io_out[30] O
io_out[31] O
io_out[32] O
io_out[33] O
io_out[34] O
io_out[35] O
io_out[36] O
io_out[37] O
io_out[3] O
io_out[4] O
io_out[5] O
io_out[6] O
io_out[7] O
io_out[8] O
io_out[9] O
la_data_in[0] I
la_data_in[10] I
la_data_in[11] I
la_data_in[12] I
la_data_in[13] I
la_data_in[14] I
la_data_in[15] I
la_data_in[16] I
la_data_in[17] I
la_data_in[18] I
la_data_in[19] I
la_data_in[1] I
la_data_in[20] I
la_data_in[21] I
la_data_in[22] I
la_data_in[23] I
la_data_in[24] I
la_data_in[25] I
la_data_in[26] I
la_data_in[27] I
la_data_in[28] I
la_data_in[29] I
la_data_in[2] I
la_data_in[30] I
la_data_in[31] I
la_data_in[32] I
la_data_in[33] I
la_data_in[34] I
la_data_in[35] I
la_data_in[36] I
la_data_in[37] I
la_data_in[38] I
la_data_in[39] I
la_data_in[3] I
la_data_in[40] I
la_data_in[41] I
la_data_in[42] I
la_data_in[43] I
la_data_in[44] I
la_data_in[45] I
la_data_in[46] I
la_data_in[47] I
la_data_in[48] I
la_data_in[49] I
la_data_in[4] I
la_data_in[50] I
la_data_in[51] I
la_data_in[52] I
la_data_in[53] I
la_data_in[54] I
la_data_in[55] I
la_data_in[56] I
la_data_in[57] I
la_data_in[58] I
la_data_in[59] I
la_data_in[5] I
la_data_in[60] I
la_data_in[61] I
la_data_in[62] I
la_data_in[63] I
la_data_in[6] I
la_data_in[7] I
la_data_in[8] I
la_data_in[9] I
la_data_out[0] O
la_data_out[10] O
la_data_out[11] O
la_data_out[12] O
la_data_out[13] O
la_data_out[14] O
la_data_out[15] O
la_data_out[16] O
la_data_out[17] O
la_data_out[18] O
la_data_out[19] O
la_data_out[1] O
la_data_out[20] O
la_data_out[21] O
la_data_out[22] O
la_data_out[23] O
la_data_out[24] O
la_data_out[25] O
la_data_out[26] O
la_data_out[27] O
la_data_out[28] O
la_data_out[29] O
la_data_out[2] O
la_data_out[30] O
la_data_out[31] O
la_data_out[32] O
la_data_out[33] O
la_data_out[34] O
la_data_out[35] O
la_data_out[36] O
la_data_out[37] O
la_data_out[38] O
la_data_out[39] O
la_data_out[3] O
la_data_out[40] O
la_data_out[41] O
la_data_out[42] O
la_data_out[43] O
la_data_out[44] O
la_data_out[45] O
la_data_out[46] O
la_data_out[47] O
la_data_out[48] O
la_data_out[49] O
la_data_out[4] O
la_data_out[50] O
la_data_out[51] O
la_data_out[52] O
la_data_out[53] O
la_data_out[54] O
la_data_out[55] O
la_data_out[56] O
la_data_out[57] O
la_data_out[58] O
la_data_out[59] O
la_data_out[5] O
la_data_out[60] O
la_data_out[61] O
la_data_out[62] O
la_data_out[63] O
la_data_out[6] O
la_data_out[7] O
la_data_out[8] O
la_data_out[9] O
la_oenb[0] I
la_oenb[10] I
la_oenb[11] I
la_oenb[12] I
la_oenb[13] I
la_oenb[14] I
la_oenb[15] I
la_oenb[16] I
la_oenb[17] I
la_oenb[18] I
la_oenb[19] I
la_oenb[1] I
la_oenb[20] I
la_oenb[21] I
la_oenb[22] I
la_oenb[23] I
la_oenb[24] I
la_oenb[25] I
la_oenb[26] I
la_oenb[27] I
la_oenb[28] I
la_oenb[29] I
la_oenb[2] I
la_oenb[30] I
la_oenb[31] I
la_oenb[32] I
la_oenb[33] I
la_oenb[34] I
la_oenb[35] I
la_oenb[36] I
la_oenb[37] I
la_oenb[38] I
la_oenb[39] I
la_oenb[3] I
la_oenb[40] I
la_oenb[41] I
la_oenb[42] I
la_oenb[43] I
la_oenb[44] I
la_oenb[45] I
la_oenb[46] I
la_oenb[47] I
la_oenb[48] I
la_oenb[49] I
la_oenb[4] I
la_oenb[50] I
la_oenb[51] I
la_oenb[52] I
la_oenb[53] I
la_oenb[54] I
la_oenb[55] I
la_oenb[56] I
la_oenb[57] I
la_oenb[58] I
la_oenb[59] I
la_oenb[5] I
la_oenb[60] I
la_oenb[61] I
la_oenb[62] I
la_oenb[63] I
la_oenb[6] I
la_oenb[7] I
la_oenb[8] I
la_oenb[9] I
user_clock2 I
user_irq[0] O
user_irq[1] O
user_irq[2] O
wb_clk_i I
wb_rst_i I
wbs_ack_o O
wbs_adr_i[0] I
wbs_adr_i[10] I
wbs_adr_i[11] I
wbs_adr_i[12] I
wbs_adr_i[13] I
wbs_adr_i[14] I
wbs_adr_i[15] I
wbs_adr_i[16] I
wbs_adr_i[17] I
wbs_adr_i[18] I
wbs_adr_i[19] I
wbs_adr_i[1] I
wbs_adr_i[20] I
wbs_adr_i[21] I
wbs_adr_i[22] I
wbs_adr_i[23] I
wbs_adr_i[24] I
wbs_adr_i[25] I
wbs_adr_i[26] I
wbs_adr_i[27] I
wbs_adr_i[28] I
wbs_adr_i[29] I
wbs_adr_i[2] I
wbs_adr_i[30] I
wbs_adr_i[31] I
wbs_adr_i[3] I
wbs_adr_i[4] I
wbs_adr_i[5] I
wbs_adr_i[6] I
wbs_adr_i[7] I
wbs_adr_i[8] I
wbs_adr_i[9] I
wbs_cyc_i I
wbs_dat_i[0] I
wbs_dat_i[10] I
wbs_dat_i[11] I
wbs_dat_i[12] I
wbs_dat_i[13] I
wbs_dat_i[14] I
wbs_dat_i[15] I
wbs_dat_i[16] I
wbs_dat_i[17] I
wbs_dat_i[18] I
wbs_dat_i[19] I
wbs_dat_i[1] I
wbs_dat_i[20] I
wbs_dat_i[21] I
wbs_dat_i[22] I
wbs_dat_i[23] I
wbs_dat_i[24] I
wbs_dat_i[25] I
wbs_dat_i[26] I
wbs_dat_i[27] I
wbs_dat_i[28] I
wbs_dat_i[29] I
wbs_dat_i[2] I
wbs_dat_i[30] I
wbs_dat_i[31] I
wbs_dat_i[3] I
wbs_dat_i[4] I
wbs_dat_i[5] I
wbs_dat_i[6] I
wbs_dat_i[7] I
wbs_dat_i[8] I
wbs_dat_i[9] I
wbs_dat_o[0] O
wbs_dat_o[10] O
wbs_dat_o[11] O
wbs_dat_o[12] O
wbs_dat_o[13] O
wbs_dat_o[14] O
wbs_dat_o[15] O
wbs_dat_o[16] O
wbs_dat_o[17] O
wbs_dat_o[18] O
wbs_dat_o[19] O
wbs_dat_o[1] O
wbs_dat_o[20] O
wbs_dat_o[21] O
wbs_dat_o[22] O
wbs_dat_o[23] O
wbs_dat_o[24] O
wbs_dat_o[25] O
wbs_dat_o[26] O
wbs_dat_o[27] O
wbs_dat_o[28] O
wbs_dat_o[29] O
wbs_dat_o[2] O
wbs_dat_o[30] O
wbs_dat_o[31] O
wbs_dat_o[3] O
wbs_dat_o[4] O
wbs_dat_o[5] O
wbs_dat_o[6] O
wbs_dat_o[7] O
wbs_dat_o[8] O
wbs_dat_o[9] O
wbs_sel_i[0] I
wbs_sel_i[1] I
wbs_sel_i[2] I
wbs_sel_i[3] I
wbs_stb_i I
wbs_we_i I

*D_NET *2 0.0835356
*CONN
*P io_in[10] I
*I *419:io_in[5] I *D user_proj_example
*CAP
1 io_in[10] 0.00617066
2 *419:io_in[5] 0.00103051
3 *2:9 0.0355971
4 *2:7 0.0345666
5 *2:5 0.00617066
*RES
1 io_in[10] *2:5 48.825 
2 *2:5 *2:7 4.5 
3 *2:7 *2:9 282.33 
4 *2:9 *419:io_in[5] 11.565 
*END

*D_NET *3 0.135908
*CONN
*P io_in[11] I
*I *419:io_in[6] I *D user_proj_example
*CAP
1 io_in[11] 0.00104753
2 *419:io_in[6] 0.00617051
3 *3:11 0.00617051
4 *3:9 0.0176263
5 *3:7 0.0186738
6 *3:9 *5:9 0.0639747
7 *3:9 *38:9 0.0222443
*RES
1 io_in[11] *3:7 12.285 
2 *3:7 *3:9 275.85 
3 *3:9 *3:11 4.5 
4 *3:11 *419:io_in[6] 48.105 
*END

*D_NET *4 0.0804929
*CONN
*P io_in[12] I
*I *419:io_in[7] I *D user_proj_example
*CAP
1 io_in[12] 0.00548944
2 *419:io_in[7] 0.00172862
3 *4:9 0.034757
4 *4:7 0.0385178
*RES
1 io_in[12] *4:7 47.925 
2 *4:7 *4:9 269.37 
3 *4:9 *419:io_in[7] 16.965 
*END

*D_NET *5 0.3488
*CONN
*P io_in[13] I
*I *419:io_in[8] I *D user_proj_example
*CAP
1 io_in[13] 0.00106911
2 *419:io_in[8] 5.27314e-05
3 *5:13 0.101889
4 *5:11 0.101837
5 *5:9 0.00897694
6 *5:7 0.010046
7 *5:9 *6:9 0.0483865
8 *5:9 *38:9 0.0125677
9 *3:9 *5:9 0.0639747
*RES
1 io_in[13] *5:7 12.465 
2 *5:7 *5:9 286.043 
3 *5:9 *5:11 4.5 
4 *5:11 *5:13 401.733 
5 *5:13 *419:io_in[8] 9.3375 
*END

*D_NET *6 0.35695
*CONN
*P io_in[14] I
*I *419:io_in[9] I *D user_proj_example
*CAP
1 io_in[14] 0.00134433
2 *419:io_in[9] 4.15737e-05
3 *6:13 0.101784
4 *6:11 0.101742
5 *6:9 0.0306518
6 *6:7 0.0319961
7 *6:9 *38:9 0.0410042
8 *5:9 *6:9 0.0483865
*RES
1 io_in[14] *6:7 12.825 
2 *6:7 *6:9 420.059 
3 *6:9 *6:11 4.5 
4 *6:11 *6:13 401.58 
5 *6:13 *419:io_in[9] 9.24107 
*END

*D_NET *7 0.371024
*CONN
*P io_in[15] I
*I *419:io_in[10] I *D user_proj_example
*CAP
1 io_in[15] 0.000902481
2 *419:io_in[10] 2.717e-05
3 *7:15 0.118823
4 *7:13 0.118796
5 *7:11 0.0657868
6 *7:9 0.0666893
*RES
1 io_in[15] *7:9 16.065 
2 *7:9 *7:11 537.155 
3 *7:11 *7:13 4.5 
4 *7:13 *7:15 397.609 
5 *7:15 *419:io_in[10] 9.14464 
*END

*D_NET *8 0.328866
*CONN
*P io_in[16] I
*I *419:io_in[11] I *D user_proj_example
*CAP
1 io_in[16] 0.00111307
2 *419:io_in[11] 5.27314e-05
3 *8:17 0.0888802
4 *8:15 0.0888275
5 *8:13 0.0744121
6 *8:11 0.0755252
7 *8:11 *91:23 5.53434e-05
*RES
1 io_in[16] *8:11 17.775 
2 *8:11 *8:13 607.162 
3 *8:13 *8:15 4.5 
4 *8:15 *8:17 351.791 
5 *8:17 *419:io_in[11] 9.3375 
*END

*D_NET *9 0.32333
*CONN
*P io_in[17] I
*I *419:io_in[12] I *D user_proj_example
*CAP
1 io_in[17] 0.00100062
2 *419:io_in[12] 4.15737e-05
3 *9:17 0.0776086
4 *9:15 0.0775671
5 *9:13 0.0830468
6 *9:11 0.0840474
7 *9:11 *91:23 1.82866e-05
*RES
1 io_in[17] *9:11 16.695 
2 *9:11 *9:13 677.459 
3 *9:13 *9:15 4.5 
4 *9:15 *9:17 307.118 
5 *9:17 *419:io_in[12] 9.24107 
*END

*D_NET *10 0.31784
*CONN
*P io_in[18] I
*I *419:io_in[13] I *D user_proj_example
*CAP
1 io_in[18] 0.00116929
2 *419:io_in[13] 2.717e-05
3 *10:17 0.0660534
4 *10:15 0.0660262
5 *10:13 0.0916607
6 *10:11 0.0928299
7 *10:11 *91:23 7.38718e-05
*RES
1 io_in[18] *10:11 18.315 
2 *10:11 *10:13 747.755 
3 *10:13 *10:15 4.5 
4 *10:15 *10:17 261.3 
5 *10:17 *419:io_in[13] 9.14464 
*END

*D_NET *11 0.390742
*CONN
*P io_in[19] I
*I *419:io_in[14] I *D user_proj_example
*CAP
1 io_in[19] 0.00105684
2 *419:io_in[14] 0.000117737
3 *11:17 0.0941718
4 *11:15 0.0940541
5 *11:13 0.100124
6 *11:11 0.101181
7 *11:11 *91:23 3.6815e-05
*RES
1 io_in[19] *11:11 17.235 
2 *11:11 *11:13 817.473 
3 *11:13 *11:15 4.5 
4 *11:15 *11:17 216.627 
5 *11:17 *419:io_in[14] 9.62679 
*END

*D_NET *13 0.308981
*CONN
*P io_in[20] I
*I *419:io_in[15] I *D user_proj_example
*CAP
1 io_in[20] 0.000902481
2 *419:io_in[15] 4.15737e-05
3 *13:15 0.0412113
4 *13:13 0.0411697
5 *13:11 0.108887
6 *13:9 0.10979
7 *13:15 *90:25 0.00697897
*RES
1 io_in[20] *13:9 16.065 
2 *13:9 *13:11 888.059 
3 *13:11 *13:13 4.5 
4 *13:13 *13:15 171.955 
5 *13:15 *419:io_in[15] 9.24107 
*END

*D_NET *34 0.0914112
*CONN
*P io_in[5] I
*I *419:io_in[0] I *D user_proj_example
*CAP
1 io_in[5] 0.00615375
2 *419:io_in[0] 0.000978156
3 *34:9 0.0395519
4 *34:7 0.0385737
5 *34:5 0.00615375
*RES
1 io_in[5] *34:5 48.825 
2 *34:5 *34:7 4.5 
3 *34:7 *34:9 314.73 
4 *34:9 *419:io_in[0] 11.565 
*END

*D_NET *35 0.117395
*CONN
*P io_in[6] I
*I *419:io_in[1] I *D user_proj_example
*CAP
1 io_in[6] 0.0011292
2 *419:io_in[1] 0.00596889
3 *35:11 0.00596889
4 *35:9 0.0319093
5 *35:7 0.0330385
6 *35:9 *38:9 0.0393804
*RES
1 io_in[6] *35:7 12.825 
2 *35:7 *35:9 308.25 
3 *35:9 *35:11 4.5 
4 *35:11 *419:io_in[1] 47.565 
*END

*D_NET *36 0.0883549
*CONN
*P io_in[7] I
*I *419:io_in[2] I *D user_proj_example
*CAP
1 io_in[7] 0.00550636
2 *419:io_in[2] 0.0016596
3 *36:9 0.0386711
4 *36:7 0.0425179
*RES
1 io_in[7] *36:7 47.925 
2 *36:7 *36:9 301.77 
3 *36:9 *419:io_in[2] 16.965 
*END

*D_NET *37 0.0867566
*CONN
*P io_in[8] I
*I *419:io_in[3] I *D user_proj_example
*CAP
1 io_in[8] 0.00518268
2 *419:io_in[3] 0.00201737
3 *37:9 0.0381956
4 *37:7 0.0413609
*RES
1 io_in[8] *37:7 45.225 
2 *37:7 *37:9 295.29 
3 *37:9 *419:io_in[3] 19.665 
*END

*D_NET *38 0.1626
*CONN
*P io_in[9] I
*I *419:io_in[4] I *D user_proj_example
*CAP
1 io_in[9] 0.00133898
2 *419:io_in[4] 0.00752293
3 *38:11 0.00752293
4 *38:9 0.0148398
5 *38:7 0.0161788
6 *3:9 *38:9 0.0222443
7 *5:9 *38:9 0.0125677
8 *6:9 *38:9 0.0410042
9 *35:9 *38:9 0.0393804
*RES
1 io_in[9] *38:7 12.645 
2 *38:7 *38:9 288.81 
3 *38:9 *38:11 4.5 
4 *38:11 *419:io_in[4] 47.745 
*END

*D_NET *90 0.61225
*CONN
*P io_out[21] O
*I *419:io_oeb[0] O *D user_proj_example
*I *419:io_out[0] O *D user_proj_example
*CAP
1 io_out[21] 0.00103811
2 *419:io_oeb[0] 0.00435162
3 *419:io_out[0] 0.00412366
4 *90:29 0.109747
5 *90:27 0.108708
6 *90:25 0.188522
7 *90:23 0.18875
8 io_out[21] *91:23 3.06349e-05
9 *13:15 *90:25 0.00697897
*RES
1 *419:io_out[0] *419:io_oeb[0] 39.24 
2 *419:io_oeb[0] *90:23 10.7325 
3 *90:23 *90:25 268.936 
4 *90:25 *90:27 4.5 
5 *90:27 *90:29 886.612 
6 *90:29 io_out[21] 17.055 
*END

*D_NET *91 0.879607
*CONN
*P io_out[22] O
*I *419:io_oeb[1] O *D user_proj_example
*I *419:io_out[1] O *D user_proj_example
*CAP
1 io_out[22] 0.0010524
2 *419:io_oeb[1] 0.000560901
3 *419:io_out[1] 0.00356802
4 *91:23 0.0482616
5 *91:21 0.0472092
6 *91:19 0.0563515
7 *91:9 0.0604804
8 *91:19 *92:9 0.00921874
9 *91:19 *92:19 0.293427
10 *91:19 *93:9 0.00208895
11 *91:19 *93:19 0.0580373
12 *91:23 *92:23 0.299137
13 io_out[21] *91:23 3.06349e-05
14 *8:11 *91:23 5.53434e-05
15 *9:11 *91:23 1.82866e-05
16 *10:11 *91:23 7.38718e-05
17 *11:11 *91:23 3.6815e-05
*RES
1 *419:io_out[1] *91:9 31.095 
2 *91:9 *419:io_oeb[1] 7.605 
3 *91:9 *91:19 816.93 
4 *91:19 *91:21 4.5 
5 *91:21 *91:23 744.75 
6 *91:23 io_out[22] 12.645 
*END

*D_NET *92 0.854243
*CONN
*P io_out[23] O
*I *419:io_oeb[2] O *D user_proj_example
*I *419:io_out[2] O *D user_proj_example
*CAP
1 io_out[23] 0.00107539
2 *419:io_oeb[2] 0.000542343
3 *419:io_out[2] 0.00209001
4 *92:23 0.0617407
5 *92:21 0.0606653
6 *92:19 0.0486859
7 *92:9 0.0513183
8 *92:19 *93:9 0.000827551
9 *92:19 *93:19 0.00163765
10 *92:19 *94:9 0.00104447
11 *92:19 *94:19 0.0228328
12 *91:19 *92:9 0.00921874
13 *91:19 *92:19 0.293427
14 *91:23 *92:23 0.299137
*RES
1 *419:io_out[2] *92:9 31.275 
2 *92:9 *419:io_oeb[2] 7.785 
3 *92:9 *92:19 746.55 
4 *92:19 *92:21 4.5 
5 *92:21 *92:23 851.31 
6 *92:23 io_out[23] 12.825 
*END

*D_NET *93 0.699002
*CONN
*P io_out[24] O
*I *419:io_oeb[3] O *D user_proj_example
*I *419:io_out[3] O *D user_proj_example
*CAP
1 io_out[24] 0.112695
2 *419:io_oeb[3] 0.000510344
3 *419:io_out[3] 0.00498997
4 *93:21 0.112695
5 *93:19 0.0923615
6 *93:9 0.0978618
7 *93:19 *94:9 0.00944794
8 *93:19 *94:19 0.205848
9 *91:19 *93:9 0.00208895
10 *91:19 *93:19 0.0580373
11 *92:19 *93:9 0.000827551
12 *92:19 *93:19 0.00163765
*RES
1 *419:io_out[3] *93:9 31.095 
2 *93:9 *419:io_oeb[3] 7.605 
3 *93:9 *93:19 648.27 
4 *93:19 *93:21 4.5 
5 *93:21 io_out[24] 904.005 
*END

*D_NET *94 0.645977
*CONN
*P io_out[25] O
*I *419:io_oeb[4] O *D user_proj_example
*I *419:io_out[4] O *D user_proj_example
*CAP
1 io_out[25] 0.112743
2 *419:io_oeb[4] 0.000558119
3 *419:io_out[4] 0.00206581
4 *94:21 0.112743
5 *94:19 0.00828078
6 *94:9 0.0109047
7 *94:19 *95:9 0.00944311
8 *94:19 *95:19 0.150065
9 *92:19 *94:9 0.00104447
10 *92:19 *94:19 0.0228328
11 *93:19 *94:9 0.00944794
12 *93:19 *94:19 0.205848
*RES
1 *419:io_out[4] *94:9 31.275 
2 *94:9 *419:io_oeb[4] 7.785 
3 *94:9 *94:19 510.03 
4 *94:19 *94:21 4.5 
5 *94:21 io_out[25] 904.185 
*END

*D_NET *95 0.509932
*CONN
*P io_out[26] O
*I *419:io_oeb[5] O *D user_proj_example
*I *419:io_out[5] O *D user_proj_example
*CAP
1 io_out[26] 0.112784
2 *419:io_oeb[5] 0.0005989
3 *419:io_out[5] 0.00211101
4 *95:21 0.112784
5 *95:19 0.00787436
6 *95:9 0.0105843
7 *95:19 *96:9 0.00944657
8 *95:19 *96:19 0.0942414
9 *94:19 *95:9 0.00944311
10 *94:19 *95:19 0.150065
*RES
1 *419:io_out[5] *95:9 31.455 
2 *95:9 *419:io_oeb[5] 7.965 
3 *95:9 *95:19 371.79 
4 *95:19 *95:21 4.5 
5 *95:21 io_out[26] 904.365 
*END

*D_NET *96 0.397895
*CONN
*P io_out[27] O
*I *419:io_oeb[6] O *D user_proj_example
*I *419:io_out[6] O *D user_proj_example
*CAP
1 io_out[27] 0.112822
2 *419:io_oeb[6] 0.000637406
3 *419:io_out[6] 0.00214635
4 *96:21 0.112822
5 *96:19 0.00753326
6 *96:9 0.010317
7 *96:19 *97:9 0.00950733
8 *96:19 *97:19 0.0384211
9 *95:19 *96:9 0.00944657
10 *95:19 *96:19 0.0942414
*RES
1 *419:io_out[6] *96:9 31.635 
2 *96:9 *419:io_oeb[6] 8.145 
3 *96:9 *96:19 233.55 
4 *96:19 *96:21 4.5 
5 *96:21 io_out[27] 904.545 
*END

*D_NET *97 0.291244
*CONN
*P io_out[28] O
*I *419:io_oeb[7] O *D user_proj_example
*I *419:io_out[7] O *D user_proj_example
*CAP
1 io_out[28] 0.112861
2 *419:io_oeb[7] 0.000675912
3 *419:io_out[7] 0.00212663
4 *97:21 0.112861
5 *97:19 0.00599475
6 *97:9 0.0087973
7 *96:19 *97:9 0.00950733
8 *96:19 *97:19 0.0384211
*RES
1 *419:io_out[7] *97:9 31.815 
2 *97:9 *419:io_oeb[7] 8.325 
3 *97:9 *97:19 95.31 
4 *97:19 *97:21 4.5 
5 *97:21 io_out[28] 904.725 
*END

*D_NET *98 0.0204634
*CONN
*P io_out[29] O
*I *419:io_oeb[8] O *D user_proj_example
*I *419:io_out[8] O *D user_proj_example
*CAP
1 io_out[29] 0.000600732
2 *419:io_oeb[8] 0.00291835
3 *419:io_out[8] 0.00361825
4 *98:27 0.00661144
5 *98:25 0.0067106
6 *419:io_oeb[8] io_out[30] 4.00472e-06
*RES
1 *419:io_out[8] *419:io_oeb[8] 32.49 
2 *419:io_out[8] *98:25 17.4336 
3 *98:25 *98:27 49.0082 
4 *98:27 io_out[29] 9.405 
*END

*D_NET *100 0.0212474
*CONN
*P io_out[30] O
*I *419:io_oeb[9] O *D user_proj_example
*I *419:io_out[9] O *D user_proj_example
*CAP
1 io_out[30] 0.000652884
2 *419:io_oeb[9] 0.00291244
3 *419:io_out[9] 0.00360118
4 *100:27 0.00701181
5 *100:25 0.00704766
6 *419:io_oeb[9] io_out[31] 1.73743e-05
7 *419:io_oeb[8] io_out[30] 4.00472e-06
*RES
1 *419:io_out[9] *419:io_oeb[9] 32.49 
2 *419:io_out[9] *100:25 17.3372 
3 *100:25 *100:27 51.2936 
4 *100:27 io_out[30] 16.9257 
*END

*D_NET *101 0.021446
*CONN
*P io_out[31] O
*I *419:io_oeb[10] O *D user_proj_example
*I *419:io_out[10] O *D user_proj_example
*CAP
1 io_out[31] 0.000652276
2 *419:io_oeb[10] 0.00282546
3 *419:io_out[10] 0
4 *101:21 0.00741288
5 *101:19 0.00723024
6 *101:4 0.00329511
7 *419:io_oeb[10] io_out[32] 1.26618e-05
8 *419:io_oeb[9] io_out[31] 1.73743e-05
*RES
1 *419:io_out[10] *101:4 4.5 
2 *101:4 *419:io_oeb[10] 27.99 
3 *101:4 *101:19 10.7761 
4 *101:19 *101:21 54.765 
5 *101:21 io_out[31] 17.0993 
*END

*D_NET *102 0.0220662
*CONN
*P io_out[32] O
*I *419:io_oeb[11] O *D user_proj_example
*I *419:io_out[11] O *D user_proj_example
*CAP
1 io_out[32] 0.000667114
2 *419:io_oeb[11] 0.00286323
3 *419:io_out[11] 0
4 *102:21 0.00766203
5 *102:19 0.00749244
6 *102:4 0.00336075
7 *419:io_oeb[11] io_out[33] 7.94936e-06
8 *419:io_oeb[10] io_out[32] 1.26618e-05
*RES
1 *419:io_out[11] *102:4 4.5 
2 *102:4 *419:io_oeb[11] 27.99 
3 *102:4 *102:19 10.969 
4 *102:19 *102:21 56.79 
5 *102:21 io_out[32] 17.0415 
*END

*D_NET *103 0.0226773
*CONN
*P io_out[33] O
*I *419:io_oeb[12] O *D user_proj_example
*I *419:io_out[12] O *D user_proj_example
*CAP
1 io_out[33] 0.000650866
2 *419:io_oeb[12] 0.00291835
3 *419:io_out[12] 0.00358649
4 *103:27 0.0077462
5 *103:25 0.00776347
6 *419:io_oeb[12] io_out[34] 4.00472e-06
7 *419:io_oeb[11] io_out[33] 7.94936e-06
*RES
1 *419:io_out[12] *419:io_oeb[12] 32.49 
2 *419:io_out[12] *103:25 17.3372 
3 *103:25 *103:27 57.6579 
4 *103:27 io_out[33] 16.9836 
*END

*D_NET *104 0.0243252
*CONN
*P io_out[34] O
*I *419:io_oeb[13] O *D user_proj_example
*I *419:io_out[13] O *D user_proj_example
*CAP
1 io_out[34] 0.000632295
2 *419:io_oeb[13] 0.00283489
3 *419:io_out[13] 0.00394582
4 *104:27 0.00821277
5 *104:25 0.00869141
6 *419:io_oeb[13] io_out[35] 4.00472e-06
7 *419:io_oeb[12] io_out[34] 4.00472e-06
*RES
1 *419:io_out[13] *419:io_oeb[13] 32.49 
2 *419:io_out[13] *104:25 16.0836 
3 *104:25 *104:27 61.1293 
4 *104:27 io_out[34] 16.9257 
*END

*D_NET *105 0.0236831
*CONN
*P io_out[35] O
*I *419:io_oeb[14] O *D user_proj_example
*I *419:io_out[14] O *D user_proj_example
*CAP
1 io_out[35] 0.000652884
2 *419:io_oeb[14] 0.00291566
3 *419:io_out[14] 0
4 *105:21 0.00841769
5 *105:19 0.00826233
6 *105:4 0.00341319
7 *419:io_oeb[14] io_out[36] 1.73743e-05
8 *419:io_oeb[13] io_out[35] 4.00472e-06
*RES
1 *419:io_out[14] *105:4 4.5 
2 *105:4 *419:io_oeb[14] 27.99 
3 *105:4 *105:19 10.969 
4 *105:19 *105:21 63.4436 
5 *105:21 io_out[35] 16.9257 
*END

*D_NET *106 0.0245856
*CONN
*P io_out[36] O
*I *419:io_oeb[15] O *D user_proj_example
*I *419:io_out[15] O *D user_proj_example
*CAP
1 io_out[36] 0.000756737
2 *419:io_oeb[15] 0.00290258
3 *419:io_out[15] 0.00359132
4 *106:27 0.0086928
5 *106:25 0.0086248
6 *419:io_oeb[14] io_out[36] 1.73743e-05
*RES
1 *419:io_out[15] *419:io_oeb[15] 32.49 
2 *419:io_out[15] *106:25 17.3372 
3 *106:25 *106:27 64.0221 
4 *106:27 io_out[36] 17.0993 
*END

*D_NET *313 0.0185474
*CONN
*P wb_clk_i I
*I *419:wb_clk_i I *D user_proj_example
*CAP
1 wb_clk_i 0.000149933
2 *419:wb_clk_i 0.000288477
3 *313:13 0.00478676
4 *313:11 0.00464821
5 *313:13 *314:11 0.00246163
6 *313:13 *413:15 0.00146238
7 *313:13 *414:13 0.00224329
8 *313:13 *415:13 0.00250673
*RES
1 wb_clk_i *313:11 5.805 
2 *313:11 *313:13 58.23 
3 *313:13 *419:wb_clk_i 6.165 
*END

*D_NET *314 0.101981
*CONN
*P wb_rst_i I
*I *419:wb_rst_i I *D user_proj_example
*CAP
1 wb_rst_i 7.52004e-05
2 *419:wb_rst_i 0.000282124
3 *314:11 0.0137603
4 *314:9 0.0135534
5 *314:11 *413:15 0.0718481
6 *313:13 *314:11 0.00246163
*RES
1 wb_rst_i *314:9 4.995 
2 *314:9 *314:11 204.57 
3 *314:11 *419:wb_rst_i 6.615 
*END

*D_NET *413 0.22136
*CONN
*P wbs_sel_i[0] I
*I *419:wbs_sel_i[0] I *D user_proj_example
*CAP
1 wbs_sel_i[0] 0.000222264
2 *419:wbs_sel_i[0] 0.000305118
3 *413:15 0.00992713
4 *413:13 0.00984428
5 *413:15 *414:13 0.12775
6 *313:13 *413:15 0.00146238
7 *314:11 *413:15 0.0718481
*RES
1 wbs_sel_i[0] *413:13 6.435 
2 *413:13 *413:15 328.05 
3 *413:15 *419:wbs_sel_i[0] 6.795 
*END

*D_NET *414 0.333676
*CONN
*P wbs_sel_i[1] I
*I *419:wbs_sel_i[1] I *D user_proj_example
*CAP
1 wbs_sel_i[1] 0.000137439
2 *419:wbs_sel_i[1] 0.000328111
3 *414:13 0.0100518
4 *414:11 0.00986117
5 *414:13 *415:13 0.183304
6 *313:13 *414:13 0.00224329
7 *413:15 *414:13 0.12775
*RES
1 wbs_sel_i[1] *414:11 5.445 
2 *414:11 *414:13 466.65 
3 *414:13 *419:wbs_sel_i[1] 6.975 
*END

*D_NET *415 0.446205
*CONN
*P wbs_sel_i[2] I
*I *419:wbs_sel_i[2] I *D user_proj_example
*CAP
1 wbs_sel_i[2] 0.000176392
2 *419:wbs_sel_i[2] 0.000201648
3 *415:13 0.0104089
4 *415:11 0.0103836
5 *415:13 *416:13 0.239224
6 *313:13 *415:13 0.00250673
7 *414:13 *415:13 0.183304
*RES
1 wbs_sel_i[2] *415:11 5.625 
2 *415:11 *415:13 605.25 
3 *415:13 *419:wbs_sel_i[2] 5.985 
*END

*D_NET *416 0.349817
*CONN
*P wbs_sel_i[3] I
*I *419:wbs_sel_i[3] I *D user_proj_example
*CAP
1 wbs_sel_i[3] 0.000215344
2 *419:wbs_sel_i[3] 0.000224642
3 *416:13 0.055081
4 *416:11 0.0550717
5 *415:13 *416:13 0.239224
*RES
1 wbs_sel_i[3] *416:11 5.805 
2 *416:11 *416:13 742.77 
3 *416:13 *419:wbs_sel_i[3] 6.165 
*END
