*SPEF "ieee 1481-1999"
*DESIGN "user_project_wrapper"
*DATE "11:11:11 Fri 11 11, 1111"
*VENDOR "OpenRCX"
*PROGRAM "Parallel Extraction"
*VERSION "1.0"
*DESIGN_FLOW "NAME_SCOPE LOCAL" "PIN_CAP NONE"
*DIVIDER /
*DELIMITER :
*BUS_DELIMITER []
*T_UNIT 1 NS
*C_UNIT 1 PF
*R_UNIT 1 OHM
*L_UNIT 1 HENRY

*NAME_MAP
*1 io_in[0]
*2 io_in[10]
*3 io_in[11]
*4 io_in[12]
*5 io_in[13]
*6 io_in[14]
*7 io_in[15]
*8 io_in[16]
*9 io_in[17]
*10 io_in[18]
*11 io_in[19]
*12 io_in[1]
*13 io_in[20]
*14 io_in[21]
*15 io_in[22]
*16 io_in[23]
*17 io_in[24]
*18 io_in[25]
*19 io_in[26]
*20 io_in[27]
*21 io_in[28]
*22 io_in[29]
*23 io_in[2]
*24 io_in[30]
*25 io_in[31]
*26 io_in[32]
*27 io_in[33]
*28 io_in[34]
*29 io_in[35]
*30 io_in[36]
*31 io_in[37]
*32 io_in[3]
*33 io_in[4]
*34 io_in[5]
*35 io_in[6]
*36 io_in[7]
*37 io_in[8]
*38 io_in[9]
*39 io_oeb[0]
*40 io_oeb[10]
*41 io_oeb[11]
*42 io_oeb[12]
*43 io_oeb[13]
*44 io_oeb[14]
*45 io_oeb[15]
*46 io_oeb[16]
*47 io_oeb[17]
*48 io_oeb[18]
*49 io_oeb[19]
*50 io_oeb[1]
*51 io_oeb[20]
*52 io_oeb[21]
*53 io_oeb[22]
*54 io_oeb[23]
*55 io_oeb[24]
*56 io_oeb[25]
*57 io_oeb[26]
*58 io_oeb[27]
*59 io_oeb[28]
*60 io_oeb[29]
*61 io_oeb[2]
*62 io_oeb[30]
*63 io_oeb[31]
*64 io_oeb[32]
*65 io_oeb[33]
*66 io_oeb[34]
*67 io_oeb[35]
*68 io_oeb[36]
*69 io_oeb[37]
*70 io_oeb[3]
*71 io_oeb[4]
*72 io_oeb[5]
*73 io_oeb[6]
*74 io_oeb[7]
*75 io_oeb[8]
*76 io_oeb[9]
*77 io_out[0]
*78 io_out[10]
*79 io_out[11]
*80 io_out[12]
*81 io_out[13]
*82 io_out[14]
*83 io_out[15]
*84 io_out[16]
*85 io_out[17]
*86 io_out[18]
*87 io_out[19]
*88 io_out[1]
*89 io_out[20]
*90 io_out[21]
*91 io_out[22]
*92 io_out[23]
*93 io_out[24]
*94 io_out[25]
*95 io_out[26]
*96 io_out[27]
*97 io_out[28]
*98 io_out[29]
*99 io_out[2]
*100 io_out[30]
*101 io_out[31]
*102 io_out[32]
*103 io_out[33]
*104 io_out[34]
*105 io_out[35]
*106 io_out[36]
*107 io_out[37]
*108 io_out[3]
*109 io_out[4]
*110 io_out[5]
*111 io_out[6]
*112 io_out[7]
*113 io_out[8]
*114 io_out[9]
*115 la_data_in[0]
*116 la_data_in[10]
*117 la_data_in[11]
*118 la_data_in[12]
*119 la_data_in[13]
*120 la_data_in[14]
*121 la_data_in[15]
*122 la_data_in[16]
*123 la_data_in[17]
*124 la_data_in[18]
*125 la_data_in[19]
*126 la_data_in[1]
*127 la_data_in[20]
*128 la_data_in[21]
*129 la_data_in[22]
*130 la_data_in[23]
*131 la_data_in[24]
*132 la_data_in[25]
*133 la_data_in[26]
*134 la_data_in[27]
*135 la_data_in[28]
*136 la_data_in[29]
*137 la_data_in[2]
*138 la_data_in[30]
*139 la_data_in[31]
*140 la_data_in[32]
*141 la_data_in[33]
*142 la_data_in[34]
*143 la_data_in[35]
*144 la_data_in[36]
*145 la_data_in[37]
*146 la_data_in[38]
*147 la_data_in[39]
*148 la_data_in[3]
*149 la_data_in[40]
*150 la_data_in[41]
*151 la_data_in[42]
*152 la_data_in[43]
*153 la_data_in[44]
*154 la_data_in[45]
*155 la_data_in[46]
*156 la_data_in[47]
*157 la_data_in[48]
*158 la_data_in[49]
*159 la_data_in[4]
*160 la_data_in[50]
*161 la_data_in[51]
*162 la_data_in[52]
*163 la_data_in[53]
*164 la_data_in[54]
*165 la_data_in[55]
*166 la_data_in[56]
*167 la_data_in[57]
*168 la_data_in[58]
*169 la_data_in[59]
*170 la_data_in[5]
*171 la_data_in[60]
*172 la_data_in[61]
*173 la_data_in[62]
*174 la_data_in[63]
*175 la_data_in[6]
*176 la_data_in[7]
*177 la_data_in[8]
*178 la_data_in[9]
*179 la_data_out[0]
*180 la_data_out[10]
*181 la_data_out[11]
*182 la_data_out[12]
*183 la_data_out[13]
*184 la_data_out[14]
*185 la_data_out[15]
*186 la_data_out[16]
*187 la_data_out[17]
*188 la_data_out[18]
*189 la_data_out[19]
*190 la_data_out[1]
*191 la_data_out[20]
*192 la_data_out[21]
*193 la_data_out[22]
*194 la_data_out[23]
*195 la_data_out[24]
*196 la_data_out[25]
*197 la_data_out[26]
*198 la_data_out[27]
*199 la_data_out[28]
*200 la_data_out[29]
*201 la_data_out[2]
*202 la_data_out[30]
*203 la_data_out[31]
*204 la_data_out[32]
*205 la_data_out[33]
*206 la_data_out[34]
*207 la_data_out[35]
*208 la_data_out[36]
*209 la_data_out[37]
*210 la_data_out[38]
*211 la_data_out[39]
*212 la_data_out[3]
*213 la_data_out[40]
*214 la_data_out[41]
*215 la_data_out[42]
*216 la_data_out[43]
*217 la_data_out[44]
*218 la_data_out[45]
*219 la_data_out[46]
*220 la_data_out[47]
*221 la_data_out[48]
*222 la_data_out[49]
*223 la_data_out[4]
*224 la_data_out[50]
*225 la_data_out[51]
*226 la_data_out[52]
*227 la_data_out[53]
*228 la_data_out[54]
*229 la_data_out[55]
*230 la_data_out[56]
*231 la_data_out[57]
*232 la_data_out[58]
*233 la_data_out[59]
*234 la_data_out[5]
*235 la_data_out[60]
*236 la_data_out[61]
*237 la_data_out[62]
*238 la_data_out[63]
*239 la_data_out[6]
*240 la_data_out[7]
*241 la_data_out[8]
*242 la_data_out[9]
*243 la_oenb[0]
*244 la_oenb[10]
*245 la_oenb[11]
*246 la_oenb[12]
*247 la_oenb[13]
*248 la_oenb[14]
*249 la_oenb[15]
*250 la_oenb[16]
*251 la_oenb[17]
*252 la_oenb[18]
*253 la_oenb[19]
*254 la_oenb[1]
*255 la_oenb[20]
*256 la_oenb[21]
*257 la_oenb[22]
*258 la_oenb[23]
*259 la_oenb[24]
*260 la_oenb[25]
*261 la_oenb[26]
*262 la_oenb[27]
*263 la_oenb[28]
*264 la_oenb[29]
*265 la_oenb[2]
*266 la_oenb[30]
*267 la_oenb[31]
*268 la_oenb[32]
*269 la_oenb[33]
*270 la_oenb[34]
*271 la_oenb[35]
*272 la_oenb[36]
*273 la_oenb[37]
*274 la_oenb[38]
*275 la_oenb[39]
*276 la_oenb[3]
*277 la_oenb[40]
*278 la_oenb[41]
*279 la_oenb[42]
*280 la_oenb[43]
*281 la_oenb[44]
*282 la_oenb[45]
*283 la_oenb[46]
*284 la_oenb[47]
*285 la_oenb[48]
*286 la_oenb[49]
*287 la_oenb[4]
*288 la_oenb[50]
*289 la_oenb[51]
*290 la_oenb[52]
*291 la_oenb[53]
*292 la_oenb[54]
*293 la_oenb[55]
*294 la_oenb[56]
*295 la_oenb[57]
*296 la_oenb[58]
*297 la_oenb[59]
*298 la_oenb[5]
*299 la_oenb[60]
*300 la_oenb[61]
*301 la_oenb[62]
*302 la_oenb[63]
*303 la_oenb[6]
*304 la_oenb[7]
*305 la_oenb[8]
*306 la_oenb[9]
*307 user_clock2
*308 user_irq[0]
*309 user_irq[1]
*310 user_irq[2]
*313 wb_clk_i
*314 wb_rst_i
*315 wbs_ack_o
*316 wbs_adr_i[0]
*317 wbs_adr_i[10]
*318 wbs_adr_i[11]
*319 wbs_adr_i[12]
*320 wbs_adr_i[13]
*321 wbs_adr_i[14]
*322 wbs_adr_i[15]
*323 wbs_adr_i[16]
*324 wbs_adr_i[17]
*325 wbs_adr_i[18]
*326 wbs_adr_i[19]
*327 wbs_adr_i[1]
*328 wbs_adr_i[20]
*329 wbs_adr_i[21]
*330 wbs_adr_i[22]
*331 wbs_adr_i[23]
*332 wbs_adr_i[24]
*333 wbs_adr_i[25]
*334 wbs_adr_i[26]
*335 wbs_adr_i[27]
*336 wbs_adr_i[28]
*337 wbs_adr_i[29]
*338 wbs_adr_i[2]
*339 wbs_adr_i[30]
*340 wbs_adr_i[31]
*341 wbs_adr_i[3]
*342 wbs_adr_i[4]
*343 wbs_adr_i[5]
*344 wbs_adr_i[6]
*345 wbs_adr_i[7]
*346 wbs_adr_i[8]
*347 wbs_adr_i[9]
*348 wbs_cyc_i
*349 wbs_dat_i[0]
*350 wbs_dat_i[10]
*351 wbs_dat_i[11]
*352 wbs_dat_i[12]
*353 wbs_dat_i[13]
*354 wbs_dat_i[14]
*355 wbs_dat_i[15]
*356 wbs_dat_i[16]
*357 wbs_dat_i[17]
*358 wbs_dat_i[18]
*359 wbs_dat_i[19]
*360 wbs_dat_i[1]
*361 wbs_dat_i[20]
*362 wbs_dat_i[21]
*363 wbs_dat_i[22]
*364 wbs_dat_i[23]
*365 wbs_dat_i[24]
*366 wbs_dat_i[25]
*367 wbs_dat_i[26]
*368 wbs_dat_i[27]
*369 wbs_dat_i[28]
*370 wbs_dat_i[29]
*371 wbs_dat_i[2]
*372 wbs_dat_i[30]
*373 wbs_dat_i[31]
*374 wbs_dat_i[3]
*375 wbs_dat_i[4]
*376 wbs_dat_i[5]
*377 wbs_dat_i[6]
*378 wbs_dat_i[7]
*379 wbs_dat_i[8]
*380 wbs_dat_i[9]
*381 wbs_dat_o[0]
*382 wbs_dat_o[10]
*383 wbs_dat_o[11]
*384 wbs_dat_o[12]
*385 wbs_dat_o[13]
*386 wbs_dat_o[14]
*387 wbs_dat_o[15]
*388 wbs_dat_o[16]
*389 wbs_dat_o[17]
*390 wbs_dat_o[18]
*391 wbs_dat_o[19]
*392 wbs_dat_o[1]
*393 wbs_dat_o[20]
*394 wbs_dat_o[21]
*395 wbs_dat_o[22]
*396 wbs_dat_o[23]
*397 wbs_dat_o[24]
*398 wbs_dat_o[25]
*399 wbs_dat_o[26]
*400 wbs_dat_o[27]
*401 wbs_dat_o[28]
*402 wbs_dat_o[29]
*403 wbs_dat_o[2]
*404 wbs_dat_o[30]
*405 wbs_dat_o[31]
*406 wbs_dat_o[3]
*407 wbs_dat_o[4]
*408 wbs_dat_o[5]
*409 wbs_dat_o[6]
*410 wbs_dat_o[7]
*411 wbs_dat_o[8]
*412 wbs_dat_o[9]
*413 wbs_sel_i[0]
*414 wbs_sel_i[1]
*415 wbs_sel_i[2]
*416 wbs_sel_i[3]
*417 wbs_stb_i
*418 wbs_we_i
*419 mprj

*PORTS
io_in[0] I
io_in[10] I
io_in[11] I
io_in[12] I
io_in[13] I
io_in[14] I
io_in[15] I
io_in[16] I
io_in[17] I
io_in[18] I
io_in[19] I
io_in[1] I
io_in[20] I
io_in[21] I
io_in[22] I
io_in[23] I
io_in[24] I
io_in[25] I
io_in[26] I
io_in[27] I
io_in[28] I
io_in[29] I
io_in[2] I
io_in[30] I
io_in[31] I
io_in[32] I
io_in[33] I
io_in[34] I
io_in[35] I
io_in[36] I
io_in[37] I
io_in[3] I
io_in[4] I
io_in[5] I
io_in[6] I
io_in[7] I
io_in[8] I
io_in[9] I
io_oeb[0] O
io_oeb[10] O
io_oeb[11] O
io_oeb[12] O
io_oeb[13] O
io_oeb[14] O
io_oeb[15] O
io_oeb[16] O
io_oeb[17] O
io_oeb[18] O
io_oeb[19] O
io_oeb[1] O
io_oeb[20] O
io_oeb[21] O
io_oeb[22] O
io_oeb[23] O
io_oeb[24] O
io_oeb[25] O
io_oeb[26] O
io_oeb[27] O
io_oeb[28] O
io_oeb[29] O
io_oeb[2] O
io_oeb[30] O
io_oeb[31] O
io_oeb[32] O
io_oeb[33] O
io_oeb[34] O
io_oeb[35] O
io_oeb[36] O
io_oeb[37] O
io_oeb[3] O
io_oeb[4] O
io_oeb[5] O
io_oeb[6] O
io_oeb[7] O
io_oeb[8] O
io_oeb[9] O
io_out[0] O
io_out[10] O
io_out[11] O
io_out[12] O
io_out[13] O
io_out[14] O
io_out[15] O
io_out[16] O
io_out[17] O
io_out[18] O
io_out[19] O
io_out[1] O
io_out[20] O
io_out[21] O
io_out[22] O
io_out[23] O
io_out[24] O
io_out[25] O
io_out[26] O
io_out[27] O
io_out[28] O
io_out[29] O
io_out[2] O
io_out[30] O
io_out[31] O
io_out[32] O
io_out[33] O
io_out[34] O
io_out[35] O
io_out[36] O
io_out[37] O
io_out[3] O
io_out[4] O
io_out[5] O
io_out[6] O
io_out[7] O
io_out[8] O
io_out[9] O
la_data_in[0] I
la_data_in[10] I
la_data_in[11] I
la_data_in[12] I
la_data_in[13] I
la_data_in[14] I
la_data_in[15] I
la_data_in[16] I
la_data_in[17] I
la_data_in[18] I
la_data_in[19] I
la_data_in[1] I
la_data_in[20] I
la_data_in[21] I
la_data_in[22] I
la_data_in[23] I
la_data_in[24] I
la_data_in[25] I
la_data_in[26] I
la_data_in[27] I
la_data_in[28] I
la_data_in[29] I
la_data_in[2] I
la_data_in[30] I
la_data_in[31] I
la_data_in[32] I
la_data_in[33] I
la_data_in[34] I
la_data_in[35] I
la_data_in[36] I
la_data_in[37] I
la_data_in[38] I
la_data_in[39] I
la_data_in[3] I
la_data_in[40] I
la_data_in[41] I
la_data_in[42] I
la_data_in[43] I
la_data_in[44] I
la_data_in[45] I
la_data_in[46] I
la_data_in[47] I
la_data_in[48] I
la_data_in[49] I
la_data_in[4] I
la_data_in[50] I
la_data_in[51] I
la_data_in[52] I
la_data_in[53] I
la_data_in[54] I
la_data_in[55] I
la_data_in[56] I
la_data_in[57] I
la_data_in[58] I
la_data_in[59] I
la_data_in[5] I
la_data_in[60] I
la_data_in[61] I
la_data_in[62] I
la_data_in[63] I
la_data_in[6] I
la_data_in[7] I
la_data_in[8] I
la_data_in[9] I
la_data_out[0] O
la_data_out[10] O
la_data_out[11] O
la_data_out[12] O
la_data_out[13] O
la_data_out[14] O
la_data_out[15] O
la_data_out[16] O
la_data_out[17] O
la_data_out[18] O
la_data_out[19] O
la_data_out[1] O
la_data_out[20] O
la_data_out[21] O
la_data_out[22] O
la_data_out[23] O
la_data_out[24] O
la_data_out[25] O
la_data_out[26] O
la_data_out[27] O
la_data_out[28] O
la_data_out[29] O
la_data_out[2] O
la_data_out[30] O
la_data_out[31] O
la_data_out[32] O
la_data_out[33] O
la_data_out[34] O
la_data_out[35] O
la_data_out[36] O
la_data_out[37] O
la_data_out[38] O
la_data_out[39] O
la_data_out[3] O
la_data_out[40] O
la_data_out[41] O
la_data_out[42] O
la_data_out[43] O
la_data_out[44] O
la_data_out[45] O
la_data_out[46] O
la_data_out[47] O
la_data_out[48] O
la_data_out[49] O
la_data_out[4] O
la_data_out[50] O
la_data_out[51] O
la_data_out[52] O
la_data_out[53] O
la_data_out[54] O
la_data_out[55] O
la_data_out[56] O
la_data_out[57] O
la_data_out[58] O
la_data_out[59] O
la_data_out[5] O
la_data_out[60] O
la_data_out[61] O
la_data_out[62] O
la_data_out[63] O
la_data_out[6] O
la_data_out[7] O
la_data_out[8] O
la_data_out[9] O
la_oenb[0] I
la_oenb[10] I
la_oenb[11] I
la_oenb[12] I
la_oenb[13] I
la_oenb[14] I
la_oenb[15] I
la_oenb[16] I
la_oenb[17] I
la_oenb[18] I
la_oenb[19] I
la_oenb[1] I
la_oenb[20] I
la_oenb[21] I
la_oenb[22] I
la_oenb[23] I
la_oenb[24] I
la_oenb[25] I
la_oenb[26] I
la_oenb[27] I
la_oenb[28] I
la_oenb[29] I
la_oenb[2] I
la_oenb[30] I
la_oenb[31] I
la_oenb[32] I
la_oenb[33] I
la_oenb[34] I
la_oenb[35] I
la_oenb[36] I
la_oenb[37] I
la_oenb[38] I
la_oenb[39] I
la_oenb[3] I
la_oenb[40] I
la_oenb[41] I
la_oenb[42] I
la_oenb[43] I
la_oenb[44] I
la_oenb[45] I
la_oenb[46] I
la_oenb[47] I
la_oenb[48] I
la_oenb[49] I
la_oenb[4] I
la_oenb[50] I
la_oenb[51] I
la_oenb[52] I
la_oenb[53] I
la_oenb[54] I
la_oenb[55] I
la_oenb[56] I
la_oenb[57] I
la_oenb[58] I
la_oenb[59] I
la_oenb[5] I
la_oenb[60] I
la_oenb[61] I
la_oenb[62] I
la_oenb[63] I
la_oenb[6] I
la_oenb[7] I
la_oenb[8] I
la_oenb[9] I
user_clock2 I
user_irq[0] O
user_irq[1] O
user_irq[2] O
wb_clk_i I
wb_rst_i I
wbs_ack_o O
wbs_adr_i[0] I
wbs_adr_i[10] I
wbs_adr_i[11] I
wbs_adr_i[12] I
wbs_adr_i[13] I
wbs_adr_i[14] I
wbs_adr_i[15] I
wbs_adr_i[16] I
wbs_adr_i[17] I
wbs_adr_i[18] I
wbs_adr_i[19] I
wbs_adr_i[1] I
wbs_adr_i[20] I
wbs_adr_i[21] I
wbs_adr_i[22] I
wbs_adr_i[23] I
wbs_adr_i[24] I
wbs_adr_i[25] I
wbs_adr_i[26] I
wbs_adr_i[27] I
wbs_adr_i[28] I
wbs_adr_i[29] I
wbs_adr_i[2] I
wbs_adr_i[30] I
wbs_adr_i[31] I
wbs_adr_i[3] I
wbs_adr_i[4] I
wbs_adr_i[5] I
wbs_adr_i[6] I
wbs_adr_i[7] I
wbs_adr_i[8] I
wbs_adr_i[9] I
wbs_cyc_i I
wbs_dat_i[0] I
wbs_dat_i[10] I
wbs_dat_i[11] I
wbs_dat_i[12] I
wbs_dat_i[13] I
wbs_dat_i[14] I
wbs_dat_i[15] I
wbs_dat_i[16] I
wbs_dat_i[17] I
wbs_dat_i[18] I
wbs_dat_i[19] I
wbs_dat_i[1] I
wbs_dat_i[20] I
wbs_dat_i[21] I
wbs_dat_i[22] I
wbs_dat_i[23] I
wbs_dat_i[24] I
wbs_dat_i[25] I
wbs_dat_i[26] I
wbs_dat_i[27] I
wbs_dat_i[28] I
wbs_dat_i[29] I
wbs_dat_i[2] I
wbs_dat_i[30] I
wbs_dat_i[31] I
wbs_dat_i[3] I
wbs_dat_i[4] I
wbs_dat_i[5] I
wbs_dat_i[6] I
wbs_dat_i[7] I
wbs_dat_i[8] I
wbs_dat_i[9] I
wbs_dat_o[0] O
wbs_dat_o[10] O
wbs_dat_o[11] O
wbs_dat_o[12] O
wbs_dat_o[13] O
wbs_dat_o[14] O
wbs_dat_o[15] O
wbs_dat_o[16] O
wbs_dat_o[17] O
wbs_dat_o[18] O
wbs_dat_o[19] O
wbs_dat_o[1] O
wbs_dat_o[20] O
wbs_dat_o[21] O
wbs_dat_o[22] O
wbs_dat_o[23] O
wbs_dat_o[24] O
wbs_dat_o[25] O
wbs_dat_o[26] O
wbs_dat_o[27] O
wbs_dat_o[28] O
wbs_dat_o[29] O
wbs_dat_o[2] O
wbs_dat_o[30] O
wbs_dat_o[31] O
wbs_dat_o[3] O
wbs_dat_o[4] O
wbs_dat_o[5] O
wbs_dat_o[6] O
wbs_dat_o[7] O
wbs_dat_o[8] O
wbs_dat_o[9] O
wbs_sel_i[0] I
wbs_sel_i[1] I
wbs_sel_i[2] I
wbs_sel_i[3] I
wbs_stb_i I
wbs_we_i I

*D_NET *2 0.0792385
*CONN
*P io_in[10] I
*I *419:io_in[5] I *D user_proj_example
*CAP
1 io_in[10] 0.00581332
2 *419:io_in[5] 0.000971253
3 *2:9 0.0338059
4 *2:7 0.038648
*RES
1 io_in[10] *2:7 45.73 
2 *2:7 *2:9 238.412 
3 *2:9 *419:io_in[5] 10.466 
*END

*D_NET *3 0.113296
*CONN
*P io_in[11] I
*I *419:io_in[6] I *D user_proj_example
*CAP
1 io_in[11] 0.00104681
2 *419:io_in[6] 0.00576508
3 *3:9 0.0294917
4 *3:7 0.0247734
5 *3:9 *38:9 0.0522194
*RES
1 io_in[11] *3:7 11.53 
2 *3:7 *3:9 232.94 
3 *3:9 *419:io_in[6] 44.666 
*END

*D_NET *4 0.0763989
*CONN
*P io_in[12] I
*I *419:io_in[7] I *D user_proj_example
*CAP
1 io_in[12] 0.00516686
2 *419:io_in[7] 0.00163138
3 *4:9 0.0330326
4 *4:7 0.0365681
*RES
1 io_in[12] *4:7 41.17 
2 *4:7 *4:9 227.468 
3 *4:9 *419:io_in[7] 15.026 
*END

*D_NET *5 0.375913
*CONN
*P io_in[13] I
*I *419:io_in[8] I *D user_proj_example
*CAP
1 io_in[13] 0.072433
2 *419:io_in[8] 0.000303947
3 *5:13 0.0206124
4 *5:11 0.0203085
5 *5:9 0.0322518
6 *5:7 0.0322518
7 *5:5 0.072433
8 *419:io_in[8] io_out[29] 0.00245736
9 *419:io_in[8] *6:17 0.00115252
10 *419:io_in[8] *10:13 0.000314917
11 *419:io_in[8] *11:21 0.000240625
12 *5:13 *10:9 0.121153
*RES
1 io_in[13] *5:5 515.47 
2 *5:5 *5:7 4.5 
3 *5:7 *5:9 233.396 
4 *5:9 *5:11 4.5 
5 *5:11 *5:13 291.156 
6 *5:13 *419:io_in[8] 17.436 
*END

*D_NET *6 0.481131
*CONN
*P io_in[14] I
*I *419:io_in[9] I *D user_proj_example
*CAP
1 io_in[14] 0.0338511
2 *419:io_in[9] 0
3 *6:17 0.00492031
4 *6:15 0.00492031
5 *6:13 0.0430895
6 *6:11 0.0430895
7 *6:9 0.0397564
8 *6:7 0.0397564
9 *6:5 0.0338511
10 *6:13 *10:9 0.0462794
11 *6:13 *11:19 0
12 *6:13 *90:27 0.161409
13 *6:17 io_out[29] 0.00213509
14 *6:17 io_out[30] 0.010355
15 *6:17 *419:io_oeb[8] 0.00798737
16 *6:17 *7:13 0.00650841
17 *6:17 *10:13 0.000632842
18 *6:17 *11:21 0.000705573
19 *6:17 *13:21 0.000731742
20 *419:io_in[8] *6:17 0.00115252
*RES
1 io_in[14] *6:5 196.27 
2 *6:5 *6:7 4.5 
3 *6:7 *6:9 287.66 
4 *6:9 *6:11 4.5 
5 *6:11 *6:13 610.812 
6 *6:13 *6:15 4.5 
7 *6:15 *6:17 67.26 
8 *6:17 *419:io_in[9] 4.5 
*END

*D_NET *7 0.60225
*CONN
*P io_in[15] I
*I *419:io_in[10] I *D user_proj_example
*CAP
1 io_in[15] 0.00102104
2 *419:io_in[10] 0.000140729
3 *7:13 0.0564123
4 *7:11 0.0562716
5 *7:9 0.0591151
6 *7:7 0.0601362
7 *7:9 *11:9 0.00609303
8 *7:9 *92:23 0.297941
9 *7:13 io_out[30] 0.00137905
10 *7:13 *419:io_oeb[9] 0.00184452
11 *7:13 *11:13 0
12 *7:13 *13:21 0.0537032
13 *7:13 *101:27 0.00168326
14 *6:17 *7:13 0.00650841
*RES
1 io_in[15] *7:7 11.53 
2 *7:7 *7:9 792.148 
3 *7:9 *7:11 4.5 
4 *7:11 *7:13 451.82 
5 *7:13 *419:io_in[10] 5.298 
*END

*D_NET *8 0.567652
*CONN
*P io_in[16] I
*I *419:io_in[11] I *D user_proj_example
*CAP
1 io_in[16] 0.0479583
2 *419:io_in[11] 0.000128983
3 *8:13 0.013822
4 *8:11 0.0136931
5 *8:9 0.0561825
6 *8:7 0.0561825
7 *8:5 0.0479583
8 *8:9 *9:9 0.253567
9 *8:13 io_out[29] 0.00104554
10 *8:13 *9:13 0.0767139
11 *8:13 *11:13 0.000399103
*RES
1 io_in[16] *8:5 328.51 
2 *8:5 *8:7 4.5 
3 *8:7 *8:9 701.556 
4 *8:9 *8:11 4.5 
5 *8:11 *8:13 189.468 
6 *8:13 *419:io_in[11] 5.45 
*END

*D_NET *9 0.62418
*CONN
*P io_in[17] I
*I *419:io_in[12] I *D user_proj_example
*CAP
1 io_in[17] 0.0479364
2 *419:io_in[12] 0.000126456
3 *9:13 0.00465113
4 *9:11 0.00452468
5 *9:9 0.0436371
6 *9:7 0.0436371
7 *9:5 0.0479364
8 *9:13 io_out[29] 0.00117681
9 *9:13 *419:io_oeb[8] 0.000604847
10 *9:13 *10:13 0.0990938
11 *9:13 *11:13 2.40328e-06
12 *9:13 *13:21 0.000571988
13 *8:9 *9:9 0.253567
14 *8:13 *9:13 0.0767139
*RES
1 io_in[17] *9:5 328.358 
2 *9:5 *9:7 4.5 
3 *9:7 *9:9 611.876 
4 *9:9 *9:11 4.5 
5 *9:11 *9:13 249.052 
6 *9:13 *419:io_in[12] 5.298 
*END

*D_NET *10 0.660612
*CONN
*P io_in[18] I
*I *419:io_in[13] I *D user_proj_example
*CAP
1 io_in[18] 0.0486103
2 *419:io_in[13] 0.000156784
3 *10:13 0.00456857
4 *10:11 0.00441179
5 *10:9 0.0169454
6 *10:7 0.0169454
7 *10:5 0.0486103
8 *10:9 *90:27 0.124701
9 *10:13 io_out[29] 0.000728928
10 *10:13 *419:io_oeb[10] 0.000316421
11 *10:13 *419:io_oeb[8] 0.00067436
12 *10:13 *419:io_oeb[9] 0.000462462
13 *10:13 *11:21 0.122451
14 *10:13 *13:21 0.000320083
15 *10:13 *101:27 0.001217
16 *10:13 *102:28 0.00107096
17 *10:13 *103:22 0.00094683
18 *419:io_in[8] *10:13 0.000314917
19 *5:13 *10:9 0.121153
20 *6:13 *10:9 0.0462794
21 *6:17 *10:13 0.000632842
22 *9:13 *10:13 0.0990938
*RES
1 io_in[18] *10:5 332.766 
2 *10:5 *10:7 4.5 
3 *10:7 *10:9 522.196 
4 *10:9 *10:11 4.5 
5 *10:11 *10:13 303.924 
6 *10:13 *419:io_in[13] 5.298 
*END

*D_NET *11 0.598025
*CONN
*P io_in[19] I
*I *419:io_in[14] I *D user_proj_example
*CAP
1 io_in[19] 0.000955437
2 *419:io_in[14] 0.000173581
3 *11:21 0.00454526
4 *11:19 0.00463017
5 *11:13 0.048019
6 *11:11 0.0477605
7 *11:9 0.0315916
8 *11:7 0.032547
9 *11:9 *13:11 0.000131277
10 *11:9 *91:23 0.124017
11 *11:9 *92:23 0.0184926
12 *11:13 *13:21 0
13 *11:21 io_out[30] 0.000596332
14 *11:21 io_out[32] 0.000194721
15 *11:21 *419:io_oeb[10] 0.000647302
16 *11:21 *419:io_oeb[11] 0.000272609
17 *11:21 *419:io_oeb[12] 0.000250282
18 *11:21 *419:io_oeb[8] 0.000699371
19 *11:21 *419:io_oeb[9] 0.000722502
20 *11:21 *13:21 0.146429
21 *11:21 *101:27 0.00135687
22 *11:21 *102:28 0.00119405
23 *11:21 *103:22 0.00178564
24 *11:21 *104:22 0.00112078
25 *419:io_in[8] *11:21 0.000240625
26 *6:13 *11:19 0
27 *6:17 *11:21 0.000705573
28 *7:9 *11:9 0.00609303
29 *7:13 *11:13 0
30 *8:13 *11:13 0.000399103
31 *9:13 *11:13 2.40328e-06
32 *10:13 *11:21 0.122451
*RES
1 io_in[19] *11:7 11.074 
2 *11:7 *11:9 431.3 
3 *11:9 *11:11 4.5 
4 *11:11 *11:13 327.94 
5 *11:13 *11:19 10.292 
6 *11:19 *11:21 361.38 
7 *11:21 *419:io_in[14] 5.45 
*END

*D_NET *13 0.469157
*CONN
*P io_in[20] I
*I *419:io_in[15] I *D user_proj_example
*CAP
1 io_in[20] 0.00100053
2 *419:io_in[15] 0.00011181
3 *13:21 0.0264035
4 *13:19 0.0262916
5 *13:17 0.0479771
6 *13:15 0.0479771
7 *13:13 0.0467911
8 *13:11 0.0477916
9 *13:21 io_out[30] 0.000664867
10 *13:21 io_out[32] 0.000434199
11 *13:21 *419:io_oeb[10] 0.00138847
12 *13:21 *419:io_oeb[11] 0.000607879
13 *13:21 *419:io_oeb[12] 0.000540348
14 *13:21 *419:io_oeb[13] 0.000380118
15 *13:21 *419:io_oeb[14] 0.000139312
16 *13:21 *419:io_oeb[8] 0.000915297
17 *13:21 *419:io_oeb[9] 0.000765403
18 *13:21 *101:27 0.00216708
19 *13:21 *102:28 0.00247667
20 *13:21 *103:22 0.00370374
21 *13:21 *104:22 0.00383883
22 *13:21 *105:13 0.00321122
23 *13:21 *106:17 0.00169248
24 *6:17 *13:21 0.000731742
25 *7:13 *13:21 0.0537032
26 *9:13 *13:21 0.000571988
27 *10:13 *13:21 0.000320083
28 *11:9 *13:11 0.000131277
29 *11:13 *13:21 0
30 *11:21 *13:21 0.146429
*RES
1 io_in[20] *13:11 16.258 
2 *13:11 *13:13 320.34 
3 *13:13 *13:15 4.5 
4 *13:15 *13:17 341.62 
5 *13:17 *13:19 4.5 
6 *13:19 *13:21 429.02 
7 *13:21 *419:io_in[15] 5.298 
*END

*D_NET *34 0.0869016
*CONN
*P io_in[5] I
*I *419:io_in[0] I *D user_proj_example
*CAP
1 io_in[5] 0.00584067
2 *419:io_in[0] 0.000916044
3 *34:9 0.0376101
4 *34:7 0.0425348
*RES
1 io_in[5] *34:7 45.73 
2 *34:7 *34:9 265.772 
3 *34:9 *419:io_in[0] 10.466 
*END

*D_NET *35 0.108481
*CONN
*P io_in[6] I
*I *419:io_in[1] I *D user_proj_example
*CAP
1 io_in[6] 0.00106049
2 *419:io_in[1] 0.00568281
3 *35:9 0.036023
4 *35:7 0.0314007
5 *35:9 *38:9 0.0343144
*RES
1 io_in[6] *35:7 11.53 
2 *35:7 *35:9 260.3 
3 *35:9 *419:io_in[1] 44.666 
*END

*D_NET *36 0.0839441
*CONN
*P io_in[7] I
*I *419:io_in[2] I *D user_proj_example
*CAP
1 io_in[7] 0.00520788
2 *419:io_in[2] 0.00157669
3 *36:9 0.0367642
4 *36:7 0.0403953
*RES
1 io_in[7] *36:7 41.17 
2 *36:7 *36:9 254.828 
3 *36:9 *419:io_in[2] 15.026 
*END

*D_NET *37 0.0823601
*CONN
*P io_in[8] I
*I *419:io_in[3] I *D user_proj_example
*CAP
1 io_in[8] 0.00488465
2 *419:io_in[3] 0.00191386
3 *37:9 0.0362954
4 *37:7 0.0392662
*RES
1 io_in[8] *37:7 38.89 
2 *37:7 *37:9 249.356 
3 *37:9 *419:io_in[3] 17.306 
*END

*D_NET *38 0.142118
*CONN
*P io_in[9] I
*I *419:io_in[4] I *D user_proj_example
*CAP
1 io_in[9] 0.00122247
2 *419:io_in[4] 0.00702364
3 *38:9 0.0265696
4 *38:7 0.0207685
5 *3:9 *38:9 0.0522194
6 *35:9 *38:9 0.0343144
*RES
1 io_in[9] *38:7 11.378 
2 *38:7 *38:9 243.884 
3 *38:9 *419:io_in[4] 44.818 
*END

*D_NET *90 0.569043
*CONN
*P io_out[21] O
*I *419:io_oeb[0] O *D user_proj_example
*I *419:io_out[0] O *D user_proj_example
*CAP
1 io_out[21] 0.0486706
2 *419:io_oeb[0] 5.68895e-05
3 *419:io_out[0] 0.00379578
4 *90:29 0.0486706
5 *90:27 0.0270383
6 *90:25 0.0270383
7 *90:23 0.0619049
8 *90:21 0.0619049
9 *90:13 0.00385267
10 *6:13 *90:27 0.161409
11 *10:9 *90:27 0.124701
*RES
1 *419:io_out[0] *90:13 33.814 
2 *90:13 *419:io_oeb[0] 0.342 
3 *90:13 *90:21 4.5 
4 *90:21 *90:23 423.092 
5 *90:23 *90:25 4.5 
6 *90:25 *90:27 537.092 
7 *90:27 *90:29 4.5 
8 *90:29 io_out[21] 332.918 
*END

*D_NET *91 0.867753
*CONN
*P io_out[22] O
*I *419:io_oeb[1] O *D user_proj_example
*I *419:io_out[1] O *D user_proj_example
*CAP
1 io_out[22] 0.000990128
2 *419:io_oeb[1] 0.00052223
3 *419:io_out[1] 0.00338431
4 *91:23 0.0251777
5 *91:21 0.0241876
6 *91:19 0.0534793
7 *91:9 0.0573858
8 *91:19 *92:9 0.00801691
9 *91:19 *92:19 0.255231
10 *91:19 *93:9 0.00190058
11 *91:19 *93:19 0.0527743
12 *91:23 *92:23 0.260686
13 *11:9 *91:23 0.124017
*RES
1 *419:io_out[1] *91:9 26.958 
2 *91:9 *419:io_oeb[1] 7.122 
3 *91:9 *91:19 690.004 
4 *91:19 *91:21 4.5 
5 *91:21 *91:23 628.9 
6 *91:23 io_out[22] 11.226 
*END

*D_NET *92 0.967589
*CONN
*P io_out[23] O
*I *419:io_oeb[2] O *D user_proj_example
*I *419:io_out[2] O *D user_proj_example
*CAP
1 io_out[23] 0.00101199
2 *419:io_oeb[2] 0.000510722
3 *419:io_out[2] 0.00197632
4 *92:23 0.0029625
5 *92:21 0.00195052
6 *92:19 0.0462089
7 *92:9 0.048696
8 *92:19 *93:9 0.000734556
9 *92:19 *93:19 0.00145362
10 *92:19 *94:9 0.000950289
11 *92:19 *94:19 0.0207664
12 *7:9 *92:23 0.297941
13 *11:9 *92:23 0.0184926
14 *91:19 *92:9 0.00801691
15 *91:19 *92:19 0.255231
16 *91:23 *92:23 0.260686
*RES
1 *419:io_out[2] *92:9 27.11 
2 *92:9 *419:io_oeb[2] 7.274 
3 *92:9 *92:19 630.572 
4 *92:19 *92:21 4.5 
5 *92:21 *92:23 718.884 
6 *92:23 io_out[23] 11.378 
*END

*D_NET *93 0.638063
*CONN
*P io_out[24] O
*I *419:io_oeb[3] O *D user_proj_example
*I *419:io_out[3] O *D user_proj_example
*CAP
1 io_out[24] 0.107152
2 *419:io_oeb[3] 0.000481164
3 *419:io_out[3] 0.00462874
4 *93:21 0.107152
5 *93:19 0.0845228
6 *93:9 0.0896327
7 *93:19 *94:9 0.00823186
8 *93:19 *94:19 0.1794
9 *91:19 *93:9 0.00190058
10 *91:19 *93:19 0.0527743
11 *92:19 *93:9 0.000734556
12 *92:19 *93:19 0.00145362
*RES
1 *419:io_out[3] *93:9 26.958 
2 *93:9 *419:io_oeb[3] 7.122 
3 *93:9 *93:19 547.428 
4 *93:19 *93:21 4.5 
5 *93:21 io_out[24] 763.382 
*END

*D_NET *94 0.583139
*CONN
*P io_out[25] O
*I *419:io_oeb[4] O *D user_proj_example
*I *419:io_out[4] O *D user_proj_example
*CAP
1 io_out[25] 0.107207
2 *419:io_oeb[4] 0.00052246
3 *419:io_out[4] 0.00194784
4 *94:21 0.107207
5 *94:19 0.00770409
6 *94:9 0.0101744
7 *94:19 *95:9 0.00823186
8 *94:19 *95:19 0.130797
9 *92:19 *94:9 0.000950289
10 *92:19 *94:19 0.0207664
11 *93:19 *94:9 0.00823186
12 *93:19 *94:19 0.1794
*RES
1 *419:io_out[4] *94:9 27.11 
2 *94:9 *419:io_oeb[4] 7.274 
3 *94:9 *94:19 430.692 
4 *94:19 *94:21 4.5 
5 *94:21 io_out[25] 763.534 
*END

*D_NET *95 0.463724
*CONN
*P io_out[26] O
*I *419:io_oeb[5] O *D user_proj_example
*I *419:io_out[5] O *D user_proj_example
*CAP
1 io_out[26] 0.107256
2 *419:io_oeb[5] 0.000558487
3 *419:io_out[5] 0.00198387
4 *95:21 0.107256
5 *95:19 0.00736058
6 *95:9 0.00990294
7 *95:19 *96:9 0.00823186
8 *95:19 *96:19 0.0821447
9 *94:19 *95:9 0.00823186
10 *94:19 *95:19 0.130797
*RES
1 *419:io_out[5] *95:9 27.262 
2 *95:9 *419:io_oeb[5] 7.426 
3 *95:9 *95:19 313.956 
4 *95:19 *95:21 4.5 
5 *95:21 io_out[26] 763.686 
*END

*D_NET *96 0.366128
*CONN
*P io_out[27] O
*I *419:io_oeb[6] O *D user_proj_example
*I *419:io_out[6] O *D user_proj_example
*CAP
1 io_out[27] 0.107291
2 *419:io_oeb[6] 0.000592807
3 *419:io_out[6] 0.00201819
4 *96:21 0.107291
5 *96:19 0.00708524
6 *96:9 0.00969624
7 *96:19 *97:9 0.00828538
8 *96:19 *97:19 0.0334922
9 *95:19 *96:9 0.00823186
10 *95:19 *96:19 0.0821447
*RES
1 *419:io_out[6] *96:9 27.414 
2 *96:9 *419:io_oeb[6] 7.578 
3 *96:9 *96:19 197.22 
4 *96:19 *96:21 4.5 
5 *96:21 io_out[27] 763.838 
*END

*D_NET *97 0.273035
*CONN
*P io_out[28] O
*I *419:io_oeb[7] O *D user_proj_example
*I *419:io_out[7] O *D user_proj_example
*CAP
1 io_out[28] 0.107325
2 *419:io_oeb[7] 0.000627127
3 *419:io_out[7] 0.00200509
4 *97:21 0.107325
5 *97:19 0.00567124
6 *97:9 0.00830345
7 *96:19 *97:9 0.00828538
8 *96:19 *97:19 0.0334922
*RES
1 *419:io_out[7] *97:9 27.566 
2 *97:9 *419:io_oeb[7] 7.73 
3 *97:9 *97:19 80.484 
4 *97:19 *97:21 4.5 
5 *97:21 io_out[28] 763.99 
*END

*D_NET *98 0.0314818
*CONN
*P io_out[29] O
*I *419:io_oeb[8] O *D user_proj_example
*I *419:io_out[8] O *D user_proj_example
*CAP
1 io_out[29] 0.00495757
2 *419:io_oeb[8] 0.00157082
3 *419:io_out[8] 0
4 *98:4 0.00652839
5 *419:io_in[8] io_out[29] 0.00245736
6 *6:17 io_out[29] 0.00213509
7 *6:17 *419:io_oeb[8] 0.00798737
8 *8:13 io_out[29] 0.00104554
9 *9:13 io_out[29] 0.00117681
10 *9:13 *419:io_oeb[8] 0.000604847
11 *10:13 io_out[29] 0.000728928
12 *10:13 *419:io_oeb[8] 0.00067436
13 *11:21 *419:io_oeb[8] 0.000699371
14 *13:21 *419:io_oeb[8] 0.000915297
*RES
1 *419:io_out[8] *98:4 4.5 
2 *98:4 *419:io_oeb[8] 24.944 
3 *98:4 io_out[29] 49.606 
*END

*D_NET *100 0.0329196
*CONN
*P io_out[30] O
*I *419:io_oeb[9] O *D user_proj_example
*I *419:io_out[9] O *D user_proj_example
*CAP
1 io_out[30] 0.00447807
2 *419:io_oeb[9] 0.00259888
3 *419:io_out[9] 0.000277476
4 *100:11 0.00735443
5 *419:io_oeb[9] io_out[31] 0.00142061
6 *6:17 io_out[30] 0.010355
7 *7:13 io_out[30] 0.00137905
8 *7:13 *419:io_oeb[9] 0.00184452
9 *10:13 *419:io_oeb[9] 0.000462462
10 *11:21 io_out[30] 0.000596332
11 *11:21 *419:io_oeb[9] 0.000722502
12 *13:21 io_out[30] 0.000664867
13 *13:21 *419:io_oeb[9] 0.000765403
*RES
1 *419:io_out[9] *100:11 5.906 
2 *100:11 *419:io_oeb[9] 25.704 
3 *100:11 io_out[30] 48.846 
*END

*D_NET *101 0.0308953
*CONN
*P io_out[31] O
*I *419:io_oeb[10] O *D user_proj_example
*I *419:io_out[10] O *D user_proj_example
*CAP
1 io_out[31] 0.000919406
2 *419:io_oeb[10] 0.00222732
3 *419:io_out[10] 0.0075901
4 *101:27 0.00628219
5 *419:io_oeb[10] io_out[32] 0.00367924
6 *419:io_oeb[9] io_out[31] 0.00142061
7 *7:13 *101:27 0.00168326
8 *10:13 *419:io_oeb[10] 0.000316421
9 *10:13 *101:27 0.001217
10 *11:21 *419:io_oeb[10] 0.000647302
11 *11:21 *101:27 0.00135687
12 *13:21 *419:io_oeb[10] 0.00138847
13 *13:21 *101:27 0.00216708
*RES
1 *419:io_out[10] *419:io_oeb[10] 29.406 
2 *419:io_out[10] *101:27 42.88 
3 *101:27 io_out[31] 13.658 
*END

*D_NET *102 0.0309518
*CONN
*P io_out[32] O
*I *419:io_oeb[11] O *D user_proj_example
*I *419:io_out[11] O *D user_proj_example
*CAP
1 io_out[32] 0.00159123
2 *419:io_oeb[11] 0.00221478
3 *419:io_out[11] 0.00686057
4 *102:28 0.00623701
5 *419:io_oeb[11] *103:22 0.00411791
6 *419:io_oeb[10] io_out[32] 0.00367924
7 *10:13 *102:28 0.00107096
8 *11:21 io_out[32] 0.000194721
9 *11:21 *419:io_oeb[11] 0.000272609
10 *11:21 *102:28 0.00119405
11 *13:21 io_out[32] 0.000434199
12 *13:21 *419:io_oeb[11] 0.000607879
13 *13:21 *102:28 0.00247667
*RES
1 *419:io_out[11] *419:io_oeb[11] 29.368 
2 *419:io_out[11] *102:28 38.168 
3 *102:28 io_out[32] 20.194 
*END

*D_NET *103 0.0333882
*CONN
*P io_out[33] O
*I *419:io_oeb[12] O *D user_proj_example
*I *419:io_out[12] O *D user_proj_example
*CAP
1 io_out[33] 0.000152928
2 *419:io_oeb[12] 0.00206536
3 *419:io_out[12] 0
4 *103:22 0.00644191
5 *103:4 0.00835435
6 *419:io_oeb[12] *104:22 0.0050289
7 *419:io_oeb[11] *103:22 0.00411791
8 *10:13 *103:22 0.00094683
9 *11:21 *419:io_oeb[12] 0.000250282
10 *11:21 *103:22 0.00178564
11 *13:21 *419:io_oeb[12] 0.000540348
12 *13:21 *103:22 0.00370374
*RES
1 *419:io_out[12] *103:4 4.5 
2 *103:4 *419:io_oeb[12] 24.906 
3 *103:4 *103:22 50.084 
4 *103:22 io_out[33] 5.45 
*END

*D_NET *104 0.0331065
*CONN
*P io_out[34] O
*I *419:io_oeb[13] O *D user_proj_example
*I *419:io_out[13] O *D user_proj_example
*CAP
1 io_out[34] 0.000152928
2 *419:io_oeb[13] 0.00191321
3 *419:io_out[13] 0
4 *104:22 0.0066274
5 *104:4 0.00838767
6 *419:io_oeb[13] *105:13 0.00565666