*SPEF "ieee 1481-1999"
*DESIGN "user_proj_example"
*DATE "11:11:11 Fri 11 11, 1111"
*VENDOR "OpenRCX"
*PROGRAM "Parallel Extraction"
*VERSION "1.0"
*DESIGN_FLOW "NAME_SCOPE LOCAL" "PIN_CAP NONE"
*DIVIDER /
*DELIMITER :
*BUS_DELIMITER []
*T_UNIT 1 NS
*C_UNIT 1 PF
*R_UNIT 1 OHM
*L_UNIT 1 HENRY

*NAME_MAP
*1 io_in[0]
*2 io_in[10]
*3 io_in[11]
*4 io_in[12]
*5 io_in[13]
*6 io_in[14]
*7 io_in[15]
*8 io_in[1]
*9 io_in[2]
*10 io_in[3]
*11 io_in[4]
*12 io_in[5]
*13 io_in[6]
*14 io_in[7]
*15 io_in[8]
*16 io_in[9]
*17 net51
*18 net61
*19 net62
*20 net63
*21 net64
*22 net65
*23 net66
*24 net52
*25 net53
*26 net54
*27 net55
*28 net56
*29 net57
*30 net58
*31 net59
*32 net60
*33 io_out[0]
*34 io_out[10]
*35 io_out[11]
*36 io_out[12]
*37 io_out[13]
*38 io_out[14]
*39 io_out[15]
*40 io_out[1]
*41 io_out[2]
*42 io_out[3]
*43 io_out[4]
*44 io_out[5]
*45 io_out[6]
*46 io_out[7]
*47 io_out[8]
*48 io_out[9]
*51 wb_clk_i
*52 wb_rst_i
*53 wbs_sel_i[0]
*54 wbs_sel_i[1]
*55 wbs_sel_i[2]
*56 wbs_sel_i[3]
*57 _0000_
*58 _0001_
*59 _0002_
*60 _0003_
*61 _0004_
*62 _0005_
*63 _0006_
*64 _0007_
*65 _0008_
*66 _0009_
*67 _0010_
*68 _0011_
*69 _0012_
*70 _0013_
*71 _0014_
*72 _0015_
*73 _0016_
*74 _0017_
*75 _0018_
*76 _0019_
*77 _0020_
*78 _0021_
*79 _0022_
*80 _0023_
*81 _0024_
*82 _0025_
*83 _0026_
*84 _0027_
*85 _0028_
*86 _0029_
*87 _0030_
*88 _0031_
*89 _0032_
*90 _0033_
*91 _0034_
*92 _0035_
*93 _0036_
*94 _0037_
*95 _0038_
*96 _0039_
*97 _0040_
*98 _0041_
*99 _0042_
*100 _0043_
*101 _0044_
*102 _0045_
*103 _0046_
*104 _0047_
*105 _0048_
*106 _0049_
*107 _0050_
*108 _0051_
*109 _0052_
*110 _0053_
*111 _0054_
*112 _0055_
*113 _0056_
*114 _0057_
*115 _0058_
*116 _0059_
*117 _0060_
*118 _0061_
*119 _0062_
*120 _0063_
*121 _0064_
*122 _0065_
*123 _0066_
*124 _0067_
*125 _0068_
*126 _0069_
*127 _0070_
*128 _0071_
*129 _0072_
*130 _0073_
*131 _0074_
*132 _0075_
*133 _0076_
*134 _0077_
*135 _0078_
*136 _0079_
*137 _0080_
*138 _0081_
*139 _0082_
*140 _0083_
*141 _0084_
*142 _0085_
*143 _0086_
*144 _0087_
*145 _0088_
*146 _0089_
*147 _0090_
*148 _0091_
*149 _0092_
*150 _0093_
*151 _0094_
*152 _0095_
*153 _0096_
*154 _0097_
*155 _0098_
*156 _0099_
*157 _0100_
*158 _0101_
*159 _0102_
*160 _0103_
*161 _0104_
*162 _0105_
*163 _0106_
*164 _0107_
*165 _0108_
*166 _0109_
*167 _0110_
*168 _0111_
*169 _0112_
*170 _0113_
*171 _0114_
*172 _0115_
*173 _0116_
*174 _0117_
*175 _0118_
*176 _0119_
*177 _0120_
*178 _0121_
*179 _0122_
*180 _0123_
*181 _0124_
*182 _0125_
*183 _0126_
*184 _0127_
*185 _0128_
*186 _0129_
*187 _0130_
*188 _0131_
*189 _0132_
*190 _0133_
*191 _0134_
*192 _0135_
*193 _0136_
*194 _0137_
*195 _0138_
*196 _0139_
*197 _0140_
*198 _0141_
*199 _0142_
*200 _0143_
*201 _0144_
*202 _0145_
*203 _0146_
*204 _0147_
*205 _0148_
*206 _0149_
*207 _0150_
*208 _0151_
*209 _0152_
*210 _0153_
*211 _0154_
*212 _0155_
*213 _0156_
*214 _0157_
*215 _0158_
*216 _0159_
*217 _0160_
*218 _0161_
*219 _0162_
*220 _0163_
*221 _0164_
*222 _0165_
*223 _0166_
*224 _0167_
*225 _0168_
*226 _0169_
*227 _0170_
*228 _0171_
*229 _0172_
*230 _0173_
*231 _0174_
*232 _0175_
*233 _0176_
*234 _0177_
*235 _0178_
*236 _0179_
*237 _0180_
*238 _0181_
*239 _0182_
*240 _0183_
*241 _0184_
*242 _0185_
*243 _0186_
*244 _0187_
*245 _0188_
*246 _0189_
*247 _0190_
*248 _0191_
*249 _0192_
*250 _0193_
*251 _0194_
*252 _0195_
*253 _0196_
*254 _0197_
*255 _0198_
*256 _0199_
*257 _0200_
*258 _0201_
*259 _0202_
*260 _0203_
*261 _0204_
*262 _0205_
*263 _0206_
*264 _0207_
*265 _0208_
*266 _0209_
*267 _0210_
*268 _0211_
*269 _0212_
*270 _0213_
*271 _0214_
*272 _0215_
*273 _0216_
*274 _0217_
*275 _0218_
*276 _0219_
*277 _0220_
*278 _0221_
*279 _0222_
*280 _0223_
*281 _0224_
*282 _0225_
*283 _0226_
*284 _0227_
*285 _0228_
*286 _0229_
*287 _0230_
*288 _0231_
*289 _0232_
*290 _0233_
*291 _0234_
*292 _0235_
*293 _0236_
*294 _0237_
*295 _0238_
*296 _0239_
*297 _0240_
*298 _0241_
*299 _0242_
*300 _0243_
*301 _0244_
*302 _0245_
*303 _0246_
*304 _0247_
*305 _0248_
*306 _0249_
*307 _0250_
*308 _0251_
*309 _0252_
*310 _0253_
*311 _0254_
*312 _0255_
*313 _0256_
*314 _0257_
*315 _0258_
*316 _0259_
*317 _0260_
*318 _0261_
*319 _0262_
*320 _0263_
*321 _0264_
*322 _0265_
*323 _0266_
*324 _0267_
*325 _0268_
*326 _0269_
*327 _0270_
*328 _0271_
*329 _0272_
*330 _0273_
*331 _0274_
*332 _0275_
*333 _0276_
*334 _0277_
*335 _0278_
*336 _0279_
*337 _0280_
*338 _0281_
*339 _0282_
*340 _0283_
*341 _0284_
*342 _0285_
*343 _0286_
*344 _0287_
*345 _0288_
*346 _0289_
*347 _0290_
*348 _0291_
*349 _0292_
*350 _0293_
*351 _0294_
*352 _0295_
*353 _0296_
*354 _0297_
*355 _0298_
*356 _0299_
*357 _0300_
*358 _0301_
*359 _0302_
*360 _0303_
*361 _0304_
*362 _0305_
*363 _0306_
*364 _0307_
*365 _0308_
*366 _0309_
*367 _0310_
*368 _0311_
*369 _0312_
*370 _0313_
*371 _0314_
*372 _0315_
*373 _0316_
*374 _0317_
*375 _0318_
*376 _0319_
*377 _0320_
*378 _0321_
*379 _0322_
*380 _0323_
*381 _0324_
*382 _0325_
*383 _0326_
*384 _0327_
*385 _0328_
*386 _0329_
*387 _0330_
*388 _0331_
*389 _0332_
*390 _0333_
*391 _0334_
*392 _0335_
*393 _0336_
*394 _0337_
*395 _0338_
*396 _0339_
*397 _0340_
*398 _0341_
*399 _0342_
*400 _0343_
*401 _0344_
*402 _0345_
*403 _0346_
*404 _0347_
*405 _0348_
*406 _0349_
*407 _0350_
*408 _0351_
*409 _0352_
*410 _0353_
*411 _0354_
*412 _0355_
*413 _0356_
*414 _0357_
*415 _0358_
*416 _0359_
*417 _0360_
*418 _0361_
*419 _0362_
*420 _0363_
*421 _0364_
*422 _0365_
*423 _0366_
*424 _0367_
*425 _0368_
*426 _0369_
*427 _0370_
*428 _0371_
*429 _0372_
*430 _0373_
*431 _0374_
*432 _0375_
*433 _0376_
*434 _0377_
*435 _0378_
*436 _0379_
*437 _0380_
*438 _0381_
*439 _0382_
*440 _0383_
*441 _0384_
*442 _0385_
*443 _0386_
*444 _0387_
*445 _0388_
*446 _0389_
*447 _0390_
*448 _0391_
*449 _0392_
*450 _0393_
*451 _0394_
*452 _0395_
*453 _0396_
*454 _0397_
*455 _0398_
*456 _0399_
*457 _0400_
*458 _0401_
*459 _0402_
*460 _0403_
*461 _0404_
*462 _0405_
*463 _0406_
*464 _0407_
*465 _0408_
*466 _0409_
*467 _0410_
*468 _0411_
*469 _0412_
*470 _0413_
*471 _0414_
*472 _0415_
*473 _0416_
*474 _0417_
*475 _0418_
*476 _0419_
*477 _0420_
*478 _0421_
*479 _0422_
*480 _0423_
*481 _0424_
*482 _0425_
*483 _0426_
*484 _0427_
*485 _0428_
*486 _0429_
*487 _0430_
*488 _0431_
*489 _0432_
*490 _0433_
*491 _0434_
*492 _0435_
*493 _0436_
*494 _0437_
*495 _0438_
*496 _0439_
*497 _0440_
*498 _0441_
*499 _0442_
*500 _0443_
*501 _0444_
*502 _0445_
*503 _0446_
*504 _0447_
*505 _0448_
*506 _0449_
*507 _0450_
*508 _0451_
*509 _0452_
*510 _0453_
*511 _0454_
*512 _0455_
*513 _0456_
*514 _0457_
*515 _0458_
*516 _0459_
*517 _0460_
*518 _0461_
*519 _0462_
*520 _0463_
*521 _0464_
*522 _0465_
*523 _0466_
*524 _0467_
*525 _0468_
*526 _0469_
*527 _0470_
*528 _0471_
*529 _0472_
*530 _0473_
*531 _0474_
*532 _0475_
*533 _0476_
*534 _0477_
*535 _0478_
*536 _0479_
*537 _0480_
*538 _0481_
*539 _0482_
*540 _0483_
*541 _0484_
*542 _0485_
*543 _0486_
*544 _0487_
*545 _0488_
*546 _0489_
*547 _0490_
*548 _0491_
*549 _0492_
*550 _0493_
*551 _0494_
*552 _0495_
*553 _0496_
*554 _0497_
*555 _0498_
*556 _0499_
*557 _0500_
*558 _0501_
*559 _0502_
*560 _0503_
*561 _0504_
*562 _0505_
*563 _0506_
*564 _0507_
*565 _0508_
*566 _0509_
*567 _0510_
*568 _0511_
*569 _0512_
*570 _0513_
*571 _0514_
*572 _0515_
*573 _0516_
*574 _0517_
*575 _0518_
*576 _0519_
*577 _0520_
*578 _0521_
*579 _0522_
*580 _0523_
*581 _0524_
*582 _0525_
*583 _0526_
*584 _0527_
*585 _0528_
*586 _0529_
*587 _0530_
*588 _0531_
*589 _0532_
*590 _0533_
*591 _0534_
*592 _0535_
*593 _0536_
*594 _0537_
*595 _0538_
*596 _0539_
*597 _0540_
*598 _0541_
*599 _0542_
*600 _0543_
*601 _0544_
*602 _0545_
*603 _0546_
*604 _0547_
*605 _0548_
*606 _0549_
*607 _0550_
*608 _0551_
*609 _0552_
*610 _0553_
*611 _0554_
*612 _0555_
*613 _0556_
*614 _0557_
*615 _0558_
*616 _0559_
*617 _0560_
*618 _0561_
*619 _0562_
*620 _0563_
*621 _0564_
*622 _0565_
*623 _0566_
*624 _0567_
*625 _0568_
*626 _0569_
*627 _0570_
*628 _0571_
*629 _0572_
*630 _0573_
*631 _0574_
*632 _0575_
*633 _0576_
*634 _0577_
*635 _0578_
*636 _0579_
*637 _0580_
*638 _0581_
*639 _0582_
*640 _0583_
*641 _0584_
*642 _0585_
*643 _0586_
*644 _0587_
*645 _0588_
*646 _0589_
*647 _0590_
*648 _0591_
*649 _0592_
*650 _0593_
*651 _0594_
*652 _0595_
*653 _0596_
*654 _0597_
*655 _0598_
*656 _0599_
*657 _0600_
*658 _0601_
*659 _0602_
*660 _0603_
*661 _0604_
*662 _0605_
*663 _0606_
*664 _0607_
*665 _0608_
*666 _0609_
*667 _0610_
*668 _0611_
*669 _0612_
*670 _0613_
*671 _0614_
*672 _0615_
*673 _0616_
*674 _0617_
*675 _0618_
*676 _0619_
*677 _0620_
*678 _0621_
*679 _0622_
*680 _0623_
*681 _0624_
*682 _0625_
*683 _0626_
*684 _0627_
*685 _0628_
*686 _0629_
*687 _0630_
*688 _0631_
*689 _0632_
*690 _0633_
*691 _0634_
*692 _0635_
*693 _0636_
*694 _0637_
*695 _0638_
*696 _0639_
*697 _0640_
*698 _0641_
*699 _0642_
*700 _0643_
*701 _0644_
*702 _0645_
*703 _0646_
*704 _0647_
*705 _0648_
*706 _0649_
*707 _0650_
*708 _0651_
*709 _0652_
*710 _0653_
*711 _0654_
*712 _0655_
*713 _0656_
*714 _0657_
*715 _0658_
*716 _0659_
*717 _0660_
*718 _0661_
*719 _0662_
*720 _0663_
*721 _0664_
*722 _0665_
*723 _0666_
*724 _0667_
*725 _0668_
*726 _0669_
*727 _0670_
*728 _0671_
*729 _0672_
*730 _0673_
*731 _0674_
*732 _0675_
*733 _0676_
*734 _0677_
*735 _0678_
*736 _0679_
*737 _0680_
*738 _0681_
*739 _0682_
*740 _0683_
*741 _0684_
*742 _0685_
*743 _0686_
*744 _0687_
*745 _0688_
*746 _0689_
*747 _0690_
*748 _0691_
*749 _0692_
*750 _0693_
*751 _0694_
*752 _0695_
*753 _0696_
*754 _0697_
*755 _0698_
*756 _0699_
*757 _0700_
*758 _0701_
*759 _0702_
*760 _0703_
*761 _0704_
*762 _0705_
*763 _0706_
*764 _0707_
*765 _0708_
*766 _0709_
*767 _0710_
*768 _0711_
*769 _0712_
*770 _0713_
*771 _0714_
*772 _0715_
*773 _0716_
*774 _0717_
*775 _0718_
*776 _0719_
*777 _0720_
*778 _0721_
*779 _0722_
*780 _0723_
*781 _0724_
*782 _0725_
*783 _0726_
*784 _0727_
*785 _0728_
*786 _0729_
*787 _0730_
*788 _0731_
*789 _0732_
*790 _0733_
*791 _0734_
*792 _0735_
*793 _0736_
*794 _0737_
*795 _0738_
*796 _0739_
*797 _0740_
*798 _0741_
*799 _0742_
*800 _0743_
*801 _0744_
*802 _0745_
*803 _0746_
*804 _0747_
*805 _0748_
*806 _0749_
*807 _0750_
*808 _0751_
*809 _0752_
*810 _0753_
*811 _0754_
*812 _0755_
*813 _0756_
*814 _0757_
*815 _0758_
*816 _0759_
*817 _0760_
*818 _0761_
*819 _0762_
*820 _0763_
*821 _0764_
*822 _0765_
*823 _0766_
*824 _0767_
*825 _0768_
*826 _0769_
*827 _0770_
*828 _0771_
*829 _0772_
*830 _0773_
*831 _0774_
*832 _0775_
*833 _0776_
*834 _0777_
*835 _0778_
*836 _0779_
*837 _0780_
*838 _0781_
*839 _0782_
*840 _0783_
*841 _0784_
*842 _0785_
*843 _0786_
*844 _0787_
*845 _0788_
*846 _0789_
*847 _0790_
*848 _0791_
*849 _0792_
*850 _0793_
*851 _0794_
*852 _0795_
*853 _0796_
*854 _0797_
*855 _0798_
*856 _0799_
*857 _0800_
*858 _0801_
*859 _0802_
*860 _0803_
*861 _0804_
*862 _0805_
*863 _0806_
*864 _0807_
*865 _0808_
*866 _0809_
*867 _0810_
*868 _0811_
*869 _0812_
*870 _0813_
*871 _0814_
*872 _0815_
*873 _0816_
*874 _0817_
*875 _0818_
*876 _0819_
*877 _0820_
*878 _0821_
*879 _0822_
*880 _0823_
*881 _0824_
*882 _0825_
*883 _0826_
*884 _0827_
*885 _0828_
*886 _0829_
*887 _0830_
*888 _0831_
*889 _0832_
*890 _0833_
*891 _0834_
*892 _0835_
*893 _0836_
*894 _0837_
*895 _0838_
*896 _0839_
*897 _0840_
*898 _0841_
*899 _0842_
*900 _0843_
*901 _0844_
*902 _0845_
*903 _0846_
*904 _0847_
*905 _0848_
*906 _0849_
*907 _0850_
*908 _0851_
*909 _0852_
*910 _0853_
*911 _0854_
*912 _0855_
*913 _0856_
*914 _0857_
*915 _0858_
*916 _0859_
*917 _0860_
*918 _0861_
*919 _0862_
*920 _0863_
*921 _0864_
*922 _0865_
*923 _0866_
*924 _0867_
*925 _0868_
*926 _0869_
*927 _0870_
*928 _0871_
*929 _0872_
*930 _0873_
*931 _0874_
*932 _0875_
*933 _0876_
*934 _0877_
*935 _0878_
*936 _0879_
*937 _0880_
*938 _0881_
*939 _0882_
*940 _0883_
*941 _0884_
*942 _0885_
*943 _0886_
*944 _0887_
*945 _0888_
*946 _0889_
*947 _0890_
*948 _0891_
*949 _0892_
*950 _0893_
*951 _0894_
*952 _0895_
*953 _0896_
*954 _0897_
*955 _0898_
*956 _0899_
*957 _0900_
*958 _0901_
*959 _0902_
*960 _0903_
*961 _0904_
*962 _0905_
*963 _0906_
*964 _0907_
*965 _0908_
*966 _0909_
*967 _0910_
*968 _0911_
*969 _0912_
*970 _0913_
*971 _0914_
*972 _0915_
*973 _0916_
*974 _0917_
*975 _0918_
*976 _0919_
*977 _0920_
*978 _0921_
*979 _0922_
*980 _0923_
*981 _0924_
*982 _0925_
*983 _0926_
*984 _0927_
*985 _0928_
*986 _0929_
*987 _0930_
*988 _0931_
*989 _0932_
*990 _0933_
*991 _0934_
*992 _0935_
*993 _0936_
*994 _0937_
*995 _0938_
*996 _0939_
*997 _0940_
*998 _0941_
*999 _0942_
*1000 _0943_
*1001 _0944_
*1002 _0945_
*1003 _0946_
*1004 _0947_
*1005 _0948_
*1006 _0949_
*1007 _0950_
*1008 _0951_
*1009 _0952_
*1010 _0953_
*1011 _0954_
*1012 _0955_
*1013 _0956_
*1014 _0957_
*1015 _0958_
*1016 _0959_
*1017 _0960_
*1018 _0961_
*1019 _0962_
*1020 _0963_
*1021 _0964_
*1022 _0965_
*1023 _0966_
*1024 _0967_
*1025 _0968_
*1026 _0969_
*1027 _0970_
*1028 _0971_
*1029 _0972_
*1030 _0973_
*1031 _0974_
*1032 _0975_
*1033 _0976_
*1034 _0977_
*1035 _0978_
*1036 _0979_
*1037 _0980_
*1038 _0981_
*1039 _0982_
*1040 _0983_
*1041 _0984_
*1042 _0985_
*1043 _0986_
*1044 _0987_
*1045 _0988_
*1046 _0989_
*1047 _0990_
*1048 _0991_
*1049 _0992_
*1050 _0993_
*1051 _0994_
*1052 _0995_
*1053 _0996_
*1054 _0997_
*1055 _0998_
*1056 _0999_
*1057 _1000_
*1058 _1001_
*1059 _1002_
*1060 _1003_
*1061 _1004_
*1062 _1005_
*1063 _1006_
*1064 _1007_
*1065 _1008_
*1066 _1009_
*1067 _1010_
*1068 _1011_
*1069 _1012_
*1070 _1013_
*1071 _1014_
*1072 _1015_
*1073 _1016_
*1074 _1017_
*1075 _1018_
*1076 _1019_
*1077 _1020_
*1078 _1021_
*1079 _1022_
*1080 _1023_
*1081 _1024_
*1082 _1025_
*1083 _1026_
*1084 _1027_
*1085 _1028_
*1086 _1029_
*1087 _1030_
*1088 _1031_
*1089 _1032_
*1090 _1033_
*1091 _1034_
*1092 _1035_
*1093 clknet_0_wb_clk_i
*1094 clknet_1_0__leaf_wb_clk_i
*1095 clknet_1_1__leaf_wb_clk_i
*1096 clknet_leaf_0_wb_clk_i
*1097 clknet_leaf_10_wb_clk_i
*1098 clknet_leaf_11_wb_clk_i
*1099 clknet_leaf_12_wb_clk_i
*1100 clknet_leaf_13_wb_clk_i
*1101 clknet_leaf_14_wb_clk_i
*1102 clknet_leaf_15_wb_clk_i
*1103 clknet_leaf_16_wb_clk_i
*1104 clknet_leaf_17_wb_clk_i
*1105 clknet_leaf_18_wb_clk_i
*1106 clknet_leaf_19_wb_clk_i
*1107 clknet_leaf_1_wb_clk_i
*1108 clknet_leaf_20_wb_clk_i
*1109 clknet_leaf_21_wb_clk_i
*1110 clknet_leaf_22_wb_clk_i
*1111 clknet_leaf_23_wb_clk_i
*1112 clknet_leaf_24_wb_clk_i
*1113 clknet_leaf_25_wb_clk_i
*1114 clknet_leaf_26_wb_clk_i
*1115 clknet_leaf_2_wb_clk_i
*1116 clknet_leaf_3_wb_clk_i
*1117 clknet_leaf_4_wb_clk_i
*1118 clknet_leaf_5_wb_clk_i
*1119 clknet_leaf_6_wb_clk_i
*1120 clknet_leaf_7_wb_clk_i
*1121 clknet_leaf_8_wb_clk_i
*1122 clknet_leaf_9_wb_clk_i
*1123 net1
*1124 net10
*1125 net11
*1126 net12
*1127 net13
*1128 net14
*1129 net15
*1130 net16
*1131 net17
*1132 net18
*1133 net19
*1134 net2
*1135 net20
*1136 net21
*1137 net22
*1138 net23
*1139 net24
*1140 net25
*1141 net26
*1142 net27
*1143 net28
*1144 net29
*1145 net3
*1146 net30
*1147 net31
*1148 net32
*1149 net33
*1150 net34
*1151 net35
*1152 net36
*1153 net37
*1154 net38
*1155 net39
*1156 net4
*1157 net40
*1158 net41
*1159 net42
*1160 net43
*1161 net44
*1162 net45
*1163 net46
*1164 net47
*1165 net48
*1166 net49
*1167 net5
*1168 net50
*1169 net6
*1170 net7
*1171 net8
*1172 net9
*1173 proj1\.controller\.state\[0\]
*1174 proj1\.controller\.state\[1\]
*1175 proj1\.controller\.state\[2\]
*1176 proj1\.controller\.state\[3\]
*1177 proj1\.datapath\.busy
*1178 proj1\.datapath\.current_bit\[0\]
*1179 proj1\.datapath\.current_bit\[1\]
*1180 proj1\.datapath\.current_bit\[2\]
*1181 proj1\.datapath\.current_bit\[3\]
*1182 proj1\.datapath\.current_bit\[4\]
*1183 proj1\.datapath\.even_parity
*1184 proj1\.datapath\.odd_parity
*1185 proj1\.datapath\.one_count\[0\]
*1186 proj1\.datapath\.parity\[0\]
*1187 proj1\.datapath\.parity\[1\]
*1188 proj1\.datapath\.shift_reg\[0\]
*1189 proj1\.datapath\.shift_reg\[1\]
*1190 proj1\.datapath\.shift_reg\[2\]
*1191 proj1\.datapath\.shift_reg\[3\]
*1192 proj1\.datapath\.shift_reg\[4\]
*1193 proj1\.datapath\.shift_reg\[5\]
*1194 proj1\.datapath\.shift_reg\[6\]
*1195 proj1\.datapath\.shift_reg\[7\]
*1196 proj2\.controller\.next_state\[0\]
*1197 proj2\.controller\.state\[0\]
*1198 proj2\.controller\.state\[1\]
*1199 proj2\.controller\.state\[2\]
*1200 proj2\.controller\.switches0_equals_1
*1201 proj2\.datapath\.busy
*1202 proj2\.datapath\.i\[0\]
*1203 proj2\.datapath\.i\[1\]
*1204 proj2\.datapath\.i\[2\]
*1205 proj2\.datapath\.i\[3\]
*1206 proj2\.datapath\.j\[0\]
*1207 proj2\.datapath\.j\[1\]
*1208 proj2\.datapath\.j\[2\]
*1209 proj2\.datapath\.j\[3\]
*1210 proj2\.datapath\.j\[4\]
*1211 proj2\.datapath\.j\[5\]
*1212 proj2\.datapath\.j\[6\]
*1213 proj2\.datapath\.j\[7\]
*1214 proj2\.datapath\.num\[0\]
*1215 proj2\.datapath\.num\[1\]
*1216 proj2\.datapath\.num\[2\]
*1217 proj2\.datapath\.num\[3\]
*1218 proj2\.datapath\.num\[4\]
*1219 proj2\.datapath\.num\[5\]
*1220 proj2\.datapath\.num\[6\]
*1221 proj2\.datapath\.num\[7\]
*1222 proj2\.datapath\.switch_shift\[1\]
*1223 proj2\.datapath\.switch_shift\[2\]
*1224 proj2\.datapath\.switch_shift\[3\]
*1225 proj2\.datapath\.switch_shift\[4\]
*1226 proj2\.datapath\.switch_shift\[5\]
*1227 proj2\.datapath\.switch_shift\[6\]
*1228 proj2\.datapath\.switch_shift\[7\]
*1229 proj2\.datapath\.tap0\[0\]
*1230 proj2\.datapath\.tap0\[1\]
*1231 proj2\.datapath\.tap0\[2\]
*1232 proj2\.datapath\.tap1\[0\]
*1233 proj2\.datapath\.tap1\[1\]
*1234 proj2\.datapath\.tap1\[2\]
*1235 the_mips\.alusrca
*1236 the_mips\.alusrcb\[0\]
*1237 the_mips\.alusrcb\[1\]
*1238 the_mips\.cont\.ac\.aluop\[0\]
*1239 the_mips\.cont\.ac\.aluop\[1\]
*1240 the_mips\.cont\.ac\.funct\[0\]
*1241 the_mips\.cont\.ac\.funct\[1\]
*1242 the_mips\.cont\.ac\.funct\[2\]
*1243 the_mips\.cont\.ac\.funct\[3\]
*1244 the_mips\.cont\.ac\.funct\[4\]
*1245 the_mips\.cont\.ac\.funct\[5\]
*1246 the_mips\.cont\.iord
*1247 the_mips\.cont\.memtoreg
*1248 the_mips\.cont\.op\[0\]
*1249 the_mips\.cont\.op\[1\]
*1250 the_mips\.cont\.op\[2\]
*1251 the_mips\.cont\.op\[3\]
*1252 the_mips\.cont\.op\[4\]
*1253 the_mips\.cont\.op\[5\]
*1254 the_mips\.cont\.outputlog\.pcsrc\[1\]
*1255 the_mips\.cont\.outputlog\.pcwrite
*1256 the_mips\.cont\.outputlog\.regdst
*1257 the_mips\.cont\.outputlog\.regwrite
*1258 the_mips\.cont\.outputlog\.state\[0\]
*1259 the_mips\.cont\.outputlog\.state\[1\]
*1260 the_mips\.cont\.outputlog\.state\[2\]
*1261 the_mips\.cont\.outputlog\.state\[3\]
*1262 the_mips\.dp\.a\[0\]
*1263 the_mips\.dp\.a\[1\]
*1264 the_mips\.dp\.a\[2\]
*1265 the_mips\.dp\.a\[3\]
*1266 the_mips\.dp\.a\[4\]
*1267 the_mips\.dp\.a\[5\]
*1268 the_mips\.dp\.a\[6\]
*1269 the_mips\.dp\.a\[7\]
*1270 the_mips\.dp\.adrmux\.d0\[0\]
*1271 the_mips\.dp\.adrmux\.d0\[1\]
*1272 the_mips\.dp\.adrmux\.d0\[2\]
*1273 the_mips\.dp\.adrmux\.d0\[3\]
*1274 the_mips\.dp\.adrmux\.d0\[4\]
*1275 the_mips\.dp\.adrmux\.d0\[5\]
*1276 the_mips\.dp\.adrmux\.d0\[6\]
*1277 the_mips\.dp\.adrmux\.d0\[7\]
*1278 the_mips\.dp\.adrmux\.d1\[0\]
*1279 the_mips\.dp\.adrmux\.d1\[1\]
*1280 the_mips\.dp\.adrmux\.d1\[2\]
*1281 the_mips\.dp\.adrmux\.d1\[3\]
*1282 the_mips\.dp\.adrmux\.d1\[4\]
*1283 the_mips\.dp\.adrmux\.d1\[5\]
*1284 the_mips\.dp\.adrmux\.d1\[6\]
*1285 the_mips\.dp\.adrmux\.d1\[7\]
*1286 the_mips\.dp\.alunit\.result\[0\]
*1287 the_mips\.dp\.alunit\.result\[1\]
*1288 the_mips\.dp\.alunit\.result\[2\]
*1289 the_mips\.dp\.alunit\.result\[3\]
*1290 the_mips\.dp\.alunit\.result\[4\]
*1291 the_mips\.dp\.alunit\.result\[5\]
*1292 the_mips\.dp\.alunit\.result\[6\]
*1293 the_mips\.dp\.alunit\.result\[7\]
*1294 the_mips\.dp\.data\[0\]
*1295 the_mips\.dp\.data\[1\]
*1296 the_mips\.dp\.data\[2\]
*1297 the_mips\.dp\.data\[3\]
*1298 the_mips\.dp\.data\[4\]
*1299 the_mips\.dp\.data\[5\]
*1300 the_mips\.dp\.data\[6\]
*1301 the_mips\.dp\.data\[7\]
*1302 the_mips\.dp\.instr\[11\]
*1303 the_mips\.dp\.instr\[12\]
*1304 the_mips\.dp\.instr\[13\]
*1305 the_mips\.dp\.instr\[16\]
*1306 the_mips\.dp\.instr\[17\]
*1307 the_mips\.dp\.instr\[18\]
*1308 the_mips\.dp\.instr\[21\]
*1309 the_mips\.dp\.instr\[22\]
*1310 the_mips\.dp\.instr\[23\]
*1311 the_mips\.dp\.instr\[6\]
*1312 the_mips\.dp\.instr\[7\]
*1313 the_mips\.dp\.ir0\.en
*1314 the_mips\.dp\.ir1\.en
*1315 the_mips\.dp\.ir2\.en
*1316 the_mips\.dp\.ir3\.en
*1317 the_mips\.dp\.rf\.RAM\[0\]\[0\]
*1318 the_mips\.dp\.rf\.RAM\[0\]\[1\]
*1319 the_mips\.dp\.rf\.RAM\[0\]\[2\]
*1320 the_mips\.dp\.rf\.RAM\[0\]\[3\]
*1321 the_mips\.dp\.rf\.RAM\[0\]\[4\]
*1322 the_mips\.dp\.rf\.RAM\[0\]\[5\]
*1323 the_mips\.dp\.rf\.RAM\[0\]\[6\]
*1324 the_mips\.dp\.rf\.RAM\[0\]\[7\]
*1325 the_mips\.dp\.rf\.RAM\[1\]\[0\]
*1326 the_mips\.dp\.rf\.RAM\[1\]\[1\]
*1327 the_mips\.dp\.rf\.RAM\[1\]\[2\]
*1328 the_mips\.dp\.rf\.RAM\[1\]\[3\]
*1329 the_mips\.dp\.rf\.RAM\[1\]\[4\]
*1330 the_mips\.dp\.rf\.RAM\[1\]\[5\]
*1331 the_mips\.dp\.rf\.RAM\[1\]\[6\]
*1332 the_mips\.dp\.rf\.RAM\[1\]\[7\]
*1333 the_mips\.dp\.rf\.RAM\[2\]\[0\]
*1334 the_mips\.dp\.rf\.RAM\[2\]\[1\]
*1335 the_mips\.dp\.rf\.RAM\[2\]\[2\]
*1336 the_mips\.dp\.rf\.RAM\[2\]\[3\]
*1337 the_mips\.dp\.rf\.RAM\[2\]\[4\]
*1338 the_mips\.dp\.rf\.RAM\[2\]\[5\]
*1339 the_mips\.dp\.rf\.RAM\[2\]\[6\]
*1340 the_mips\.dp\.rf\.RAM\[2\]\[7\]
*1341 the_mips\.dp\.rf\.RAM\[3\]\[0\]
*1342 the_mips\.dp\.rf\.RAM\[3\]\[1\]
*1343 the_mips\.dp\.rf\.RAM\[3\]\[2\]
*1344 the_mips\.dp\.rf\.RAM\[3\]\[3\]
*1345 the_mips\.dp\.rf\.RAM\[3\]\[4\]
*1346 the_mips\.dp\.rf\.RAM\[3\]\[5\]
*1347 the_mips\.dp\.rf\.RAM\[3\]\[6\]
*1348 the_mips\.dp\.rf\.RAM\[3\]\[7\]
*1349 the_mips\.dp\.rf\.RAM\[4\]\[0\]
*1350 the_mips\.dp\.rf\.RAM\[4\]\[1\]
*1351 the_mips\.dp\.rf\.RAM\[4\]\[2\]
*1352 the_mips\.dp\.rf\.RAM\[4\]\[3\]
*1353 the_mips\.dp\.rf\.RAM\[4\]\[4\]
*1354 the_mips\.dp\.rf\.RAM\[4\]\[5\]
*1355 the_mips\.dp\.rf\.RAM\[4\]\[6\]
*1356 the_mips\.dp\.rf\.RAM\[4\]\[7\]
*1357 the_mips\.dp\.rf\.RAM\[5\]\[0\]
*1358 the_mips\.dp\.rf\.RAM\[5\]\[1\]
*1359 the_mips\.dp\.rf\.RAM\[5\]\[2\]
*1360 the_mips\.dp\.rf\.RAM\[5\]\[3\]
*1361 the_mips\.dp\.rf\.RAM\[5\]\[4\]
*1362 the_mips\.dp\.rf\.RAM\[5\]\[5\]
*1363 the_mips\.dp\.rf\.RAM\[5\]\[6\]
*1364 the_mips\.dp\.rf\.RAM\[5\]\[7\]
*1365 the_mips\.dp\.rf\.RAM\[6\]\[0\]
*1366 the_mips\.dp\.rf\.RAM\[6\]\[1\]
*1367 the_mips\.dp\.rf\.RAM\[6\]\[2\]
*1368 the_mips\.dp\.rf\.RAM\[6\]\[3\]
*1369 the_mips\.dp\.rf\.RAM\[6\]\[4\]
*1370 the_mips\.dp\.rf\.RAM\[6\]\[5\]
*1371 the_mips\.dp\.rf\.RAM\[6\]\[6\]
*1372 the_mips\.dp\.rf\.RAM\[6\]\[7\]
*1373 the_mips\.dp\.rf\.RAM\[7\]\[0\]
*1374 the_mips\.dp\.rf\.RAM\[7\]\[1\]
*1375 the_mips\.dp\.rf\.RAM\[7\]\[2\]
*1376 the_mips\.dp\.rf\.RAM\[7\]\[3\]
*1377 the_mips\.dp\.rf\.RAM\[7\]\[4\]
*1378 the_mips\.dp\.rf\.RAM\[7\]\[5\]
*1379 the_mips\.dp\.rf\.RAM\[7\]\[6\]
*1380 the_mips\.dp\.rf\.RAM\[7\]\[7\]
*1381 the_mips\.dp\.src2mux\.d0\[0\]
*1382 the_mips\.dp\.src2mux\.d0\[1\]
*1383 the_mips\.dp\.src2mux\.d0\[2\]
*1384 the_mips\.dp\.src2mux\.d0\[3\]
*1385 the_mips\.dp\.src2mux\.d0\[4\]
*1386 the_mips\.dp\.src2mux\.d0\[5\]
*1387 the_mips\.dp\.src2mux\.d0\[6\]
*1388 the_mips\.dp\.src2mux\.d0\[7\]
*1389 ANTENNA_1
*1390 ANTENNA_2
*1391 ANTENNA_3
*1392 ANTENNA_4
*1393 ANTENNA__1038__I
*1394 ANTENNA__1039__I
*1395 ANTENNA__1040__A1
*1396 ANTENNA__1041__A1
*1397 ANTENNA__1041__A2
*1398 ANTENNA__1043__I
*1399 ANTENNA__1046__A3
*1400 ANTENNA__1047__A1
*1401 ANTENNA__1047__A2
*1402 ANTENNA__1060__A1
*1403 ANTENNA__1062__A1
*1404 ANTENNA__1065__I
*1405 ANTENNA__1067__A1
*1406 ANTENNA__1069__I
*1407 ANTENNA__1073__I
*1408 ANTENNA__1077__A1
*1409 ANTENNA__1079__I0
*1410 ANTENNA__1079__I1
*1411 ANTENNA__1081__A2
*1412 ANTENNA__1082__A1
*1413 ANTENNA__1085__A1
*1414 ANTENNA__1088__I0
*1415 ANTENNA__1088__I1
*1416 ANTENNA__1090__A1
*1417 ANTENNA__1092__A2
*1418 ANTENNA__1096__I0
*1419 ANTENNA__1096__I1
*1420 ANTENNA__1100__A2
*1421 ANTENNA__1102__A1
*1422 ANTENNA__1103__A1
*1423 ANTENNA__1105__A1
*1424 ANTENNA__1105__A3
*1425 ANTENNA__1106__I1
*1426 ANTENNA__1106__S
*1427 ANTENNA__1108__I0
*1428 ANTENNA__1108__I1
*1429 ANTENNA__1111__A1
*1430 ANTENNA__1112__A1
*1431 ANTENNA__1116__I1
*1432 ANTENNA__1117__A2
*1433 ANTENNA__1119__A1
*1434 ANTENNA__1120__A1
*1435 ANTENNA__1120__A2
*1436 ANTENNA__1122__I1
*1437 ANTENNA__1123__I0
*1438 ANTENNA__1124__A1
*1439 ANTENNA__1125__A1
*1440 ANTENNA__1142__A1
*1441 ANTENNA__1147__B
*1442 ANTENNA__1153__A3
*1443 ANTENNA__1154__A3
*1444 ANTENNA__1165__I
*1445 ANTENNA__1169__A1
*1446 ANTENNA__1171__A1
*1447 ANTENNA__1173__I
*1448 ANTENNA__1181__A1
*1449 ANTENNA__1186__I
*1450 ANTENNA__1188__A1
*1451 ANTENNA__1190__S
*1452 ANTENNA__1203__A2
*1453 ANTENNA__1209__I
*1454 ANTENNA__1224__A1
*1455 ANTENNA__1236__I
*1456 ANTENNA__1245__A1
*1457 ANTENNA__1255__A1
*1458 ANTENNA__1269__I
*1459 ANTENNA__1271__A2
*1460 ANTENNA__1275__I
*1461 ANTENNA__1279__I
*1462 ANTENNA__1280__A1
*1463 ANTENNA__1283__I
*1464 ANTENNA__1284__A1
*1465 ANTENNA__1285__I
*1466 ANTENNA__1288__B2
*1467 ANTENNA__1290__A1
*1468 ANTENNA__1292__I
*1469 ANTENNA__1293__A2
*1470 ANTENNA__1293__B2
*1471 ANTENNA__1294__A1
*1472 ANTENNA__1296__A2
*1473 ANTENNA__1297__A1
*1474 ANTENNA__1298__B2
*1475 ANTENNA__1300__A1
*1476 ANTENNA__1304__I
*1477 ANTENNA__1305__C
*1478 ANTENNA__1307__A1
*1479 ANTENNA__1307__B1
*1480 ANTENNA__1309__I
*1481 ANTENNA__1310__A1
*1482 ANTENNA__1310__A2
*1483 ANTENNA__1311__A1
*1484 ANTENNA__1311__A2
*1485 ANTENNA__1312__I
*1486 ANTENNA__1313__A1
*1487 ANTENNA__1313__A2
*1488 ANTENNA__1313__A3
*1489 ANTENNA__1314__I
*1490 ANTENNA__1316__A1
*1491 ANTENNA__1317__A1
*1492 ANTENNA__1317__A2
*1493 ANTENNA__1318__A1
*1494 ANTENNA__1319__I
*1495 ANTENNA__1320__A2
*1496 ANTENNA__1321__A2
*1497 ANTENNA__1324__A1
*1498 ANTENNA__1325__A1
*1499 ANTENNA__1325__A2
*1500 ANTENNA__1326__A1
*1501 ANTENNA__1326__A2
*1502 ANTENNA__1328__I
*1503 ANTENNA__1329__A1
*1504 ANTENNA__1329__A2
*1505 ANTENNA__1330__I
*1506 ANTENNA__1332__A2
*1507 ANTENNA__1333__A1
*1508 ANTENNA__1334__B1
*1509 ANTENNA__1336__I
*1510 ANTENNA__1337__A1
*1511 ANTENNA__1337__B2
*1512 ANTENNA__1340__B2
*1513 ANTENNA__1343__B2
*1514 ANTENNA__1346__B1
*1515 ANTENNA__1346__B2
*1516 ANTENNA__1347__I
*1517 ANTENNA__1348__A2
*1518 ANTENNA__1348__B1
*1519 ANTENNA__1348__B2
*1520 ANTENNA__1349__I
*1521 ANTENNA__1350__I1
*1522 ANTENNA__1351__A2
*1523 ANTENNA__1351__B1
*1524 ANTENNA__1352__I
*1525 ANTENNA__1356__I
*1526 ANTENNA__1358__A1
*1527 ANTENNA__1359__A1
*1528 ANTENNA__1362__A1
*1529 ANTENNA__1363__A1
*1530 ANTENNA__1365__A1
*1531 ANTENNA__1366__A1
*1532 ANTENNA__1369__A1
*1533 ANTENNA__1372__A1
*1534 ANTENNA__1372__B
*1535 ANTENNA__1374__A1
*1536 ANTENNA__1375__A1
*1537 ANTENNA__1375__B
*1538 ANTENNA__1377__A1
*1539 ANTENNA__1378__A1
*1540 ANTENNA__1378__B
*1541 ANTENNA__1386__I0
*1542 ANTENNA__1387__I
*1543 ANTENNA__1388__S
*1544 ANTENNA__1389__I
*1545 ANTENNA__1390__I0
*1546 ANTENNA__1390__S
*1547 ANTENNA__1391__I
*1548 ANTENNA__1392__I
*1549 ANTENNA__1394__A2
*1550 ANTENNA__1395__A2
*1551 ANTENNA__1396__A2
*1552 ANTENNA__1399__I1
*1553 ANTENNA__1399__S
*1554 ANTENNA__1404__A2
*1555 ANTENNA__1405__I
*1556 ANTENNA__1406__I1
*1557 ANTENNA__1406__S
*1558 ANTENNA__1410__A2
*1559 ANTENNA__1411__I
*1560 ANTENNA__1412__I1
*1561 ANTENNA__1412__S
*1562 ANTENNA__1415__A2
*1563 ANTENNA__1416__I
*1564 ANTENNA__1417__I1
*1565 ANTENNA__1417__S
*1566 ANTENNA__1420__A2
*1567 ANTENNA__1421__I
*1568 ANTENNA__1423__S
*1569 ANTENNA__1426__A2
*1570 ANTENNA__1427__I
*1571 ANTENNA__1428__S
*1572 ANTENNA__1431__A2
*1573 ANTENNA__1432__I
*1574 ANTENNA__1433__S
*1575 ANTENNA__1436__A2
*1576 ANTENNA__1438__S
*1577 ANTENNA__1440__I
*1578 ANTENNA__1441__I
*1579 ANTENNA__1442__I
*1580 ANTENNA__1443__I
*1581 ANTENNA__1444__A1
*1582 ANTENNA__1447__I0
*1583 ANTENNA__1449__I
*1584 ANTENNA__1450__I0
*1585 ANTENNA__1452__I
*1586 ANTENNA__1453__I0
*1587 ANTENNA__1455__I
*1588 ANTENNA__1456__I0
*1589 ANTENNA__1458__I
*1590 ANTENNA__1460__I0
*1591 ANTENNA__1462__I
*1592 ANTENNA__1465__I
*1593 ANTENNA__1469__I0
*1594 ANTENNA__1471__I
*1595 ANTENNA__1473__I1
*1596 ANTENNA__1477__A1
*1597 ANTENNA__1480__A1
*1598 ANTENNA__1481__A1
*1599 ANTENNA__1485__A1
*1600 ANTENNA__1486__I
*1601 ANTENNA__1487__A1
*1602 ANTENNA__1492__A1
*1603 ANTENNA__1494__A1
*1604 ANTENNA__1496__I0
*1605 ANTENNA__1496__I1
*1606 ANTENNA__1499__A1
*1607 ANTENNA__1501__A1
*1608 ANTENNA__1503__A1
*1609 ANTENNA__1506__A1
*1610 ANTENNA__1507__I1
*1611 ANTENNA__1513__A1
*1612 ANTENNA__1516__I
*1613 ANTENNA__1517__I
*1614 ANTENNA__1518__A1
*1615 ANTENNA__1520__I
*1616 ANTENNA__1521__I
*1617 ANTENNA__1527__I0
*1618 ANTENNA__1527__I1
*1619 ANTENNA__1527__S
*1620 ANTENNA__1531__A1
*1621 ANTENNA__1536__A1
*1622 ANTENNA__1539__I1
*1623 ANTENNA__1539__S
*1624 ANTENNA__1542__I
*1625 ANTENNA__1543__A3
*1626 ANTENNA__1543__A4
*1627 ANTENNA__1545__B2
*1628 ANTENNA__1553__B2
*1629 ANTENNA__1559__A2
*1630 ANTENNA__1560__I
*1631 ANTENNA__1568__A1
*1632 ANTENNA__1572__A1
*1633 ANTENNA__1573__A1
*1634 ANTENNA__1575__A1
*1635 ANTENNA__1578__A1
*1636 ANTENNA__1582__A1
*1637 ANTENNA__1585__A1
*1638 ANTENNA__1588__A1
*1639 ANTENNA__1589__A1
*1640 ANTENNA__1592__A1
*1641 ANTENNA__1593__A2
*1642 ANTENNA__1595__A1
*1643 ANTENNA__1607__A1
*1644 ANTENNA__1623__A1
*1645 ANTENNA__1623__A2
*1646 ANTENNA__1624__A2
*1647 ANTENNA__1637__A1
*1648 ANTENNA__1637__A2
*1649 ANTENNA__1645__A1
*1650 ANTENNA__1656__A1
*1651 ANTENNA__1662__A4
*1652 ANTENNA__1664__I0
*1653 ANTENNA__1664__S
*1654 ANTENNA__1666__I0
*1655 ANTENNA__1666__S
*1656 ANTENNA__1668__I0
*1657 ANTENNA__1668__S
*1658 ANTENNA__1670__I0
*1659 ANTENNA__1670__S
*1660 ANTENNA__1673__I0
*1661 ANTENNA__1673__S
*1662 ANTENNA__1675__S
*1663 ANTENNA__1677__I1
*1664 ANTENNA__1677__S
*1665 ANTENNA__1679__I0
*1666 ANTENNA__1679__S
*1667 ANTENNA__1688__I1
*1668 ANTENNA__1688__S
*1669 ANTENNA__1690__I1
*1670 ANTENNA__1690__S
*1671 ANTENNA__1692__I1
*1672 ANTENNA__1692__S
*1673 ANTENNA__1694__I1
*1674 ANTENNA__1694__S
*1675 ANTENNA__1708__A1
*1676 ANTENNA__1708__A2
*1677 ANTENNA__1709__A2
*1678 ANTENNA__1715__A2
*1679 ANTENNA__1717__A2
*1680 ANTENNA__1758__S0
*1681 ANTENNA__1764__S0
*1682 ANTENNA__1765__A2
*1683 ANTENNA__1769__S0
*1684 ANTENNA__1776__S0
*1685 ANTENNA__1776__S1
*1686 ANTENNA__1777__A2
*1687 ANTENNA__1785__S0
*1688 ANTENNA__1785__S1
*1689 ANTENNA__1790__S0
*1690 ANTENNA__1790__S1
*1691 ANTENNA__1791__A2
*1692 ANTENNA__1794__A1
*1693 ANTENNA__1795__S0
*1694 ANTENNA__1795__S1
*1695 ANTENNA__1796__A2
*1696 ANTENNA__1800__S0
*1697 ANTENNA__1805__I1
*1698 ANTENNA__1805__S
*1699 ANTENNA__1807__I1
*1700 ANTENNA__1807__S