*SPEF "ieee 1481-1999"
*DESIGN "user_project_wrapper"
*DATE "11:11:11 Fri 11 11, 1111"
*VENDOR "OpenRCX"
*PROGRAM "Parallel Extraction"
*VERSION "1.0"
*DESIGN_FLOW "NAME_SCOPE LOCAL" "PIN_CAP NONE"
*DIVIDER /
*DELIMITER :
*BUS_DELIMITER []
*T_UNIT 1 NS
*C_UNIT 1 PF
*R_UNIT 1 OHM
*L_UNIT 1 HENRY

*NAME_MAP
*1 io_in[0]
*2 io_in[10]
*3 io_in[11]
*4 io_in[12]
*5 io_in[13]
*6 io_in[14]
*7 io_in[15]
*8 io_in[16]
*9 io_in[17]
*10 io_in[18]
*11 io_in[19]
*12 io_in[1]
*13 io_in[20]
*14 io_in[21]
*15 io_in[22]
*16 io_in[23]
*17 io_in[24]
*18 io_in[25]
*19 io_in[26]
*20 io_in[27]
*21 io_in[28]
*22 io_in[29]
*23 io_in[2]
*24 io_in[30]
*25 io_in[31]
*26 io_in[32]
*27 io_in[33]
*28 io_in[34]
*29 io_in[35]
*30 io_in[36]
*31 io_in[37]
*32 io_in[3]
*33 io_in[4]
*34 io_in[5]
*35 io_in[6]
*36 io_in[7]
*37 io_in[8]
*38 io_in[9]
*39 io_oeb[0]
*40 io_oeb[10]
*41 io_oeb[11]
*42 io_oeb[12]
*43 io_oeb[13]
*44 io_oeb[14]
*45 io_oeb[15]
*46 io_oeb[16]
*47 io_oeb[17]
*48 io_oeb[18]
*49 io_oeb[19]
*50 io_oeb[1]
*51 io_oeb[20]
*52 io_oeb[21]
*53 io_oeb[22]
*54 io_oeb[23]
*55 io_oeb[24]
*56 io_oeb[25]
*57 io_oeb[26]
*58 io_oeb[27]
*59 io_oeb[28]
*60 io_oeb[29]
*61 io_oeb[2]
*62 io_oeb[30]
*63 io_oeb[31]
*64 io_oeb[32]
*65 io_oeb[33]
*66 io_oeb[34]
*67 io_oeb[35]
*68 io_oeb[36]
*69 io_oeb[37]
*70 io_oeb[3]
*71 io_oeb[4]
*72 io_oeb[5]
*73 io_oeb[6]
*74 io_oeb[7]
*75 io_oeb[8]
*76 io_oeb[9]
*77 io_out[0]
*78 io_out[10]
*79 io_out[11]
*80 io_out[12]
*81 io_out[13]
*82 io_out[14]
*83 io_out[15]
*84 io_out[16]
*85 io_out[17]
*86 io_out[18]
*87 io_out[19]
*88 io_out[1]
*89 io_out[20]
*90 io_out[21]
*91 io_out[22]
*92 io_out[23]
*93 io_out[24]
*94 io_out[25]
*95 io_out[26]
*96 io_out[27]
*97 io_out[28]
*98 io_out[29]
*99 io_out[2]
*100 io_out[30]
*101 io_out[31]
*102 io_out[32]
*103 io_out[33]
*104 io_out[34]
*105 io_out[35]
*106 io_out[36]
*107 io_out[37]
*108 io_out[3]
*109 io_out[4]
*110 io_out[5]
*111 io_out[6]
*112 io_out[7]
*113 io_out[8]
*114 io_out[9]
*115 la_data_in[0]
*116 la_data_in[10]
*117 la_data_in[11]
*118 la_data_in[12]
*119 la_data_in[13]
*120 la_data_in[14]
*121 la_data_in[15]
*122 la_data_in[16]
*123 la_data_in[17]
*124 la_data_in[18]
*125 la_data_in[19]
*126 la_data_in[1]
*127 la_data_in[20]
*128 la_data_in[21]
*129 la_data_in[22]
*130 la_data_in[23]
*131 la_data_in[24]
*132 la_data_in[25]
*133 la_data_in[26]
*134 la_data_in[27]
*135 la_data_in[28]
*136 la_data_in[29]
*137 la_data_in[2]
*138 la_data_in[30]
*139 la_data_in[31]
*140 la_data_in[32]
*141 la_data_in[33]
*142 la_data_in[34]
*143 la_data_in[35]
*144 la_data_in[36]
*145 la_data_in[37]
*146 la_data_in[38]
*147 la_data_in[39]
*148 la_data_in[3]
*149 la_data_in[40]
*150 la_data_in[41]
*151 la_data_in[42]
*152 la_data_in[43]
*153 la_data_in[44]
*154 la_data_in[45]
*155 la_data_in[46]
*156 la_data_in[47]
*157 la_data_in[48]
*158 la_data_in[49]
*159 la_data_in[4]
*160 la_data_in[50]
*161 la_data_in[51]
*162 la_data_in[52]
*163 la_data_in[53]
*164 la_data_in[54]
*165 la_data_in[55]
*166 la_data_in[56]
*167 la_data_in[57]
*168 la_data_in[58]
*169 la_data_in[59]
*170 la_data_in[5]
*171 la_data_in[60]
*172 la_data_in[61]
*173 la_data_in[62]
*174 la_data_in[63]
*175 la_data_in[6]
*176 la_data_in[7]
*177 la_data_in[8]
*178 la_data_in[9]
*179 la_data_out[0]
*180 la_data_out[10]
*181 la_data_out[11]
*182 la_data_out[12]
*183 la_data_out[13]
*184 la_data_out[14]
*185 la_data_out[15]
*186 la_data_out[16]
*187 la_data_out[17]
*188 la_data_out[18]
*189 la_data_out[19]
*190 la_data_out[1]
*191 la_data_out[20]
*192 la_data_out[21]
*193 la_data_out[22]
*194 la_data_out[23]
*195 la_data_out[24]
*196 la_data_out[25]
*197 la_data_out[26]
*198 la_data_out[27]
*199 la_data_out[28]
*200 la_data_out[29]
*201 la_data_out[2]
*202 la_data_out[30]
*203 la_data_out[31]
*204 la_data_out[32]
*205 la_data_out[33]
*206 la_data_out[34]
*207 la_data_out[35]
*208 la_data_out[36]
*209 la_data_out[37]
*210 la_data_out[38]
*211 la_data_out[39]
*212 la_data_out[3]
*213 la_data_out[40]
*214 la_data_out[41]
*215 la_data_out[42]
*216 la_data_out[43]
*217 la_data_out[44]
*218 la_data_out[45]
*219 la_data_out[46]
*220 la_data_out[47]
*221 la_data_out[48]
*222 la_data_out[49]
*223 la_data_out[4]
*224 la_data_out[50]
*225 la_data_out[51]
*226 la_data_out[52]
*227 la_data_out[53]
*228 la_data_out[54]
*229 la_data_out[55]
*230 la_data_out[56]
*231 la_data_out[57]
*232 la_data_out[58]
*233 la_data_out[59]
*234 la_data_out[5]
*235 la_data_out[60]
*236 la_data_out[61]
*237 la_data_out[62]
*238 la_data_out[63]
*239 la_data_out[6]
*240 la_data_out[7]
*241 la_data_out[8]
*242 la_data_out[9]
*243 la_oenb[0]
*244 la_oenb[10]
*245 la_oenb[11]
*246 la_oenb[12]
*247 la_oenb[13]
*248 la_oenb[14]
*249 la_oenb[15]
*250 la_oenb[16]
*251 la_oenb[17]
*252 la_oenb[18]
*253 la_oenb[19]
*254 la_oenb[1]
*255 la_oenb[20]
*256 la_oenb[21]
*257 la_oenb[22]
*258 la_oenb[23]
*259 la_oenb[24]
*260 la_oenb[25]
*261 la_oenb[26]
*262 la_oenb[27]
*263 la_oenb[28]
*264 la_oenb[29]
*265 la_oenb[2]
*266 la_oenb[30]
*267 la_oenb[31]
*268 la_oenb[32]
*269 la_oenb[33]
*270 la_oenb[34]
*271 la_oenb[35]
*272 la_oenb[36]
*273 la_oenb[37]
*274 la_oenb[38]
*275 la_oenb[39]
*276 la_oenb[3]
*277 la_oenb[40]
*278 la_oenb[41]
*279 la_oenb[42]
*280 la_oenb[43]
*281 la_oenb[44]
*282 la_oenb[45]
*283 la_oenb[46]
*284 la_oenb[47]
*285 la_oenb[48]
*286 la_oenb[49]
*287 la_oenb[4]
*288 la_oenb[50]
*289 la_oenb[51]
*290 la_oenb[52]
*291 la_oenb[53]
*292 la_oenb[54]
*293 la_oenb[55]
*294 la_oenb[56]
*295 la_oenb[57]
*296 la_oenb[58]
*297 la_oenb[59]
*298 la_oenb[5]
*299 la_oenb[60]
*300 la_oenb[61]
*301 la_oenb[62]
*302 la_oenb[63]
*303 la_oenb[6]
*304 la_oenb[7]
*305 la_oenb[8]
*306 la_oenb[9]
*307 user_clock2
*308 user_irq[0]
*309 user_irq[1]
*310 user_irq[2]
*313 wb_clk_i
*314 wb_rst_i
*315 wbs_ack_o
*316 wbs_adr_i[0]
*317 wbs_adr_i[10]
*318 wbs_adr_i[11]
*319 wbs_adr_i[12]
*320 wbs_adr_i[13]
*321 wbs_adr_i[14]
*322 wbs_adr_i[15]
*323 wbs_adr_i[16]
*324 wbs_adr_i[17]
*325 wbs_adr_i[18]
*326 wbs_adr_i[19]
*327 wbs_adr_i[1]
*328 wbs_adr_i[20]
*329 wbs_adr_i[21]
*330 wbs_adr_i[22]
*331 wbs_adr_i[23]
*332 wbs_adr_i[24]
*333 wbs_adr_i[25]
*334 wbs_adr_i[26]
*335 wbs_adr_i[27]
*336 wbs_adr_i[28]
*337 wbs_adr_i[29]
*338 wbs_adr_i[2]
*339 wbs_adr_i[30]
*340 wbs_adr_i[31]
*341 wbs_adr_i[3]
*342 wbs_adr_i[4]
*343 wbs_adr_i[5]
*344 wbs_adr_i[6]
*345 wbs_adr_i[7]
*346 wbs_adr_i[8]
*347 wbs_adr_i[9]
*348 wbs_cyc_i
*349 wbs_dat_i[0]
*350 wbs_dat_i[10]
*351 wbs_dat_i[11]
*352 wbs_dat_i[12]
*353 wbs_dat_i[13]
*354 wbs_dat_i[14]
*355 wbs_dat_i[15]
*356 wbs_dat_i[16]
*357 wbs_dat_i[17]
*358 wbs_dat_i[18]
*359 wbs_dat_i[19]
*360 wbs_dat_i[1]
*361 wbs_dat_i[20]
*362 wbs_dat_i[21]
*363 wbs_dat_i[22]
*364 wbs_dat_i[23]
*365 wbs_dat_i[24]
*366 wbs_dat_i[25]
*367 wbs_dat_i[26]
*368 wbs_dat_i[27]
*369 wbs_dat_i[28]
*370 wbs_dat_i[29]
*371 wbs_dat_i[2]
*372 wbs_dat_i[30]
*373 wbs_dat_i[31]
*374 wbs_dat_i[3]
*375 wbs_dat_i[4]
*376 wbs_dat_i[5]
*377 wbs_dat_i[6]
*378 wbs_dat_i[7]
*379 wbs_dat_i[8]
*380 wbs_dat_i[9]
*381 wbs_dat_o[0]
*382 wbs_dat_o[10]
*383 wbs_dat_o[11]
*384 wbs_dat_o[12]
*385 wbs_dat_o[13]
*386 wbs_dat_o[14]
*387 wbs_dat_o[15]
*388 wbs_dat_o[16]
*389 wbs_dat_o[17]
*390 wbs_dat_o[18]
*391 wbs_dat_o[19]
*392 wbs_dat_o[1]
*393 wbs_dat_o[20]
*394 wbs_dat_o[21]
*395 wbs_dat_o[22]
*396 wbs_dat_o[23]
*397 wbs_dat_o[24]
*398 wbs_dat_o[25]
*399 wbs_dat_o[26]
*400 wbs_dat_o[27]
*401 wbs_dat_o[28]
*402 wbs_dat_o[29]
*403 wbs_dat_o[2]
*404 wbs_dat_o[30]
*405 wbs_dat_o[31]
*406 wbs_dat_o[3]
*407 wbs_dat_o[4]
*408 wbs_dat_o[5]
*409 wbs_dat_o[6]
*410 wbs_dat_o[7]
*411 wbs_dat_o[8]
*412 wbs_dat_o[9]
*413 wbs_sel_i[0]
*414 wbs_sel_i[1]
*415 wbs_sel_i[2]
*416 wbs_sel_i[3]
*417 wbs_stb_i
*418 wbs_we_i
*419 mprj

*PORTS
io_in[0] I
io_in[10] I
io_in[11] I
io_in[12] I
io_in[13] I
io_in[14] I
io_in[15] I
io_in[16] I
io_in[17] I
io_in[18] I
io_in[19] I
io_in[1] I
io_in[20] I
io_in[21] I
io_in[22] I
io_in[23] I
io_in[24] I
io_in[25] I
io_in[26] I
io_in[27] I
io_in[28] I
io_in[29] I
io_in[2] I
io_in[30] I
io_in[31] I
io_in[32] I
io_in[33] I
io_in[34] I
io_in[35] I
io_in[36] I
io_in[37] I
io_in[3] I
io_in[4] I
io_in[5] I
io_in[6] I
io_in[7] I
io_in[8] I
io_in[9] I
io_oeb[0] O
io_oeb[10] O
io_oeb[11] O
io_oeb[12] O
io_oeb[13] O
io_oeb[14] O
io_oeb[15] O
io_oeb[16] O
io_oeb[17] O
io_oeb[18] O
io_oeb[19] O
io_oeb[1] O
io_oeb[20] O
io_oeb[21] O
io_oeb[22] O
io_oeb[23] O
io_oeb[24] O
io_oeb[25] O
io_oeb[26] O
io_oeb[27] O
io_oeb[28] O
io_oeb[29] O
io_oeb[2] O
io_oeb[30] O
io_oeb[31] O
io_oeb[32] O
io_oeb[33] O
io_oeb[34] O
io_oeb[35] O
io_oeb[36] O
io_oeb[37] O
io_oeb[3] O
io_oeb[4] O
io_oeb[5] O
io_oeb[6] O
io_oeb[7] O
io_oeb[8] O
io_oeb[9] O
io_out[0] O
io_out[10] O
io_out[11] O
io_out[12] O
io_out[13] O
io_out[14] O
io_out[15] O
io_out[16] O
io_out[17] O
io_out[18] O
io_out[19] O
io_out[1] O
io_out[20] O
io_out[21] O
io_out[22] O
io_out[23] O
io_out[24] O
io_out[25] O
io_out[26] O
io_out[27] O
io_out[28] O
io_out[29] O
io_out[2] O
io_out[30] O
io_out[31] O
io_out[32] O
io_out[33] O
io_out[34] O
io_out[35] O
io_out[36] O
io_out[37] O
io_out[3] O
io_out[4] O
io_out[5] O
io_out[6] O
io_out[7] O
io_out[8] O
io_out[9] O
la_data_in[0] I
la_data_in[10] I
la_data_in[11] I
la_data_in[12] I
la_data_in[13] I
la_data_in[14] I
la_data_in[15] I
la_data_in[16] I
la_data_in[17] I
la_data_in[18] I
la_data_in[19] I
la_data_in[1] I
la_data_in[20] I
la_data_in[21] I
la_data_in[22] I
la_data_in[23] I
la_data_in[24] I
la_data_in[25] I
la_data_in[26] I
la_data_in[27] I
la_data_in[28] I
la_data_in[29] I
la_data_in[2] I
la_data_in[30] I
la_data_in[31] I
la_data_in[32] I
la_data_in[33] I
la_data_in[34] I
la_data_in[35] I
la_data_in[36] I
la_data_in[37] I
la_data_in[38] I
la_data_in[39] I
la_data_in[3] I
la_data_in[40] I
la_data_in[41] I
la_data_in[42] I
la_data_in[43] I
la_data_in[44] I
la_data_in[45] I
la_data_in[46] I
la_data_in[47] I
la_data_in[48] I
la_data_in[49] I
la_data_in[4] I
la_data_in[50] I
la_data_in[51] I
la_data_in[52] I
la_data_in[53] I
la_data_in[54] I
la_data_in[55] I
la_data_in[56] I
la_data_in[57] I
la_data_in[58] I
la_data_in[59] I
la_data_in[5] I
la_data_in[60] I
la_data_in[61] I
la_data_in[62] I
la_data_in[63] I
la_data_in[6] I
la_data_in[7] I
la_data_in[8] I
la_data_in[9] I
la_data_out[0] O
la_data_out[10] O
la_data_out[11] O
la_data_out[12] O
la_data_out[13] O
la_data_out[14] O
la_data_out[15] O
la_data_out[16] O
la_data_out[17] O
la_data_out[18] O
la_data_out[19] O
la_data_out[1] O
la_data_out[20] O
la_data_out[21] O
la_data_out[22] O
la_data_out[23] O
la_data_out[24] O
la_data_out[25] O
la_data_out[26] O
la_data_out[27] O
la_data_out[28] O
la_data_out[29] O
la_data_out[2] O
la_data_out[30] O
la_data_out[31] O
la_data_out[32] O
la_data_out[33] O
la_data_out[34] O
la_data_out[35] O
la_data_out[36] O
la_data_out[37] O
la_data_out[38] O
la_data_out[39] O
la_data_out[3] O
la_data_out[40] O
la_data_out[41] O
la_data_out[42] O
la_data_out[43] O
la_data_out[44] O
la_data_out[45] O
la_data_out[46] O
la_data_out[47] O
la_data_out[48] O
la_data_out[49] O
la_data_out[4] O
la_data_out[50] O
la_data_out[51] O
la_data_out[52] O
la_data_out[53] O
la_data_out[54] O
la_data_out[55] O
la_data_out[56] O
la_data_out[57] O
la_data_out[58] O
la_data_out[59] O
la_data_out[5] O
la_data_out[60] O
la_data_out[61] O
la_data_out[62] O
la_data_out[63] O
la_data_out[6] O
la_data_out[7] O
la_data_out[8] O
la_data_out[9] O
la_oenb[0] I
la_oenb[10] I
la_oenb[11] I
la_oenb[12] I
la_oenb[13] I
la_oenb[14] I
la_oenb[15] I
la_oenb[16] I
la_oenb[17] I
la_oenb[18] I
la_oenb[19] I
la_oenb[1] I
la_oenb[20] I
la_oenb[21] I
la_oenb[22] I
la_oenb[23] I
la_oenb[24] I
la_oenb[25] I
la_oenb[26] I
la_oenb[27] I
la_oenb[28] I
la_oenb[29] I
la_oenb[2] I
la_oenb[30] I
la_oenb[31] I
la_oenb[32] I
la_oenb[33] I
la_oenb[34] I
la_oenb[35] I
la_oenb[36] I
la_oenb[37] I
la_oenb[38] I
la_oenb[39] I
la_oenb[3] I
la_oenb[40] I
la_oenb[41] I
la_oenb[42] I
la_oenb[43] I
la_oenb[44] I
la_oenb[45] I
la_oenb[46] I
la_oenb[47] I
la_oenb[48] I
la_oenb[49] I
la_oenb[4] I
la_oenb[50] I
la_oenb[51] I
la_oenb[52] I
la_oenb[53] I
la_oenb[54] I
la_oenb[55] I
la_oenb[56] I
la_oenb[57] I
la_oenb[58] I
la_oenb[59] I
la_oenb[5] I
la_oenb[60] I
la_oenb[61] I
la_oenb[62] I
la_oenb[63] I
la_oenb[6] I
la_oenb[7] I
la_oenb[8] I
la_oenb[9] I
user_clock2 I
user_irq[0] O
user_irq[1] O
user_irq[2] O
wb_clk_i I
wb_rst_i I
wbs_ack_o O
wbs_adr_i[0] I
wbs_adr_i[10] I
wbs_adr_i[11] I
wbs_adr_i[12] I
wbs_adr_i[13] I
wbs_adr_i[14] I
wbs_adr_i[15] I
wbs_adr_i[16] I
wbs_adr_i[17] I
wbs_adr_i[18] I
wbs_adr_i[19] I
wbs_adr_i[1] I
wbs_adr_i[20] I
wbs_adr_i[21] I
wbs_adr_i[22] I
wbs_adr_i[23] I
wbs_adr_i[24] I
wbs_adr_i[25] I
wbs_adr_i[26] I
wbs_adr_i[27] I
wbs_adr_i[28] I
wbs_adr_i[29] I
wbs_adr_i[2] I
wbs_adr_i[30] I
wbs_adr_i[31] I
wbs_adr_i[3] I
wbs_adr_i[4] I
wbs_adr_i[5] I
wbs_adr_i[6] I
wbs_adr_i[7] I
wbs_adr_i[8] I
wbs_adr_i[9] I
wbs_cyc_i I
wbs_dat_i[0] I
wbs_dat_i[10] I
wbs_dat_i[11] I
wbs_dat_i[12] I
wbs_dat_i[13] I
wbs_dat_i[14] I
wbs_dat_i[15] I
wbs_dat_i[16] I
wbs_dat_i[17] I
wbs_dat_i[18] I
wbs_dat_i[19] I
wbs_dat_i[1] I
wbs_dat_i[20] I
wbs_dat_i[21] I
wbs_dat_i[22] I
wbs_dat_i[23] I
wbs_dat_i[24] I
wbs_dat_i[25] I
wbs_dat_i[26] I
wbs_dat_i[27] I
wbs_dat_i[28] I
wbs_dat_i[29] I
wbs_dat_i[2] I
wbs_dat_i[30] I
wbs_dat_i[31] I
wbs_dat_i[3] I
wbs_dat_i[4] I
wbs_dat_i[5] I
wbs_dat_i[6] I
wbs_dat_i[7] I
wbs_dat_i[8] I
wbs_dat_i[9] I
wbs_dat_o[0] O
wbs_dat_o[10] O
wbs_dat_o[11] O
wbs_dat_o[12] O
wbs_dat_o[13] O
wbs_dat_o[14] O
wbs_dat_o[15] O
wbs_dat_o[16] O
wbs_dat_o[17] O
wbs_dat_o[18] O
wbs_dat_o[19] O
wbs_dat_o[1] O
wbs_dat_o[20] O
wbs_dat_o[21] O
wbs_dat_o[22] O
wbs_dat_o[23] O
wbs_dat_o[24] O
wbs_dat_o[25] O
wbs_dat_o[26] O
wbs_dat_o[27] O
wbs_dat_o[28] O
wbs_dat_o[29] O
wbs_dat_o[2] O
wbs_dat_o[30] O
wbs_dat_o[31] O
wbs_dat_o[3] O
wbs_dat_o[4] O
wbs_dat_o[5] O
wbs_dat_o[6] O
wbs_dat_o[7] O
wbs_dat_o[8] O
wbs_dat_o[9] O
wbs_sel_i[0] I
wbs_sel_i[1] I
wbs_sel_i[2] I
wbs_sel_i[3] I
wbs_stb_i I
wbs_we_i I

*D_NET *2 0.0833433
*CONN
*P io_in[10] I
*I *419:io_in[5] I *D user_proj_example
*CAP
1 io_in[10] 0.00611991
2 *419:io_in[5] 0.00104766
3 *2:9 0.0355517
4 *2:7 0.0345041
5 *2:5 0.00611991
*RES
1 io_in[10] *2:5 48.825 
2 *2:5 *2:7 4.5 
3 *2:7 *2:9 282.33 
4 *2:9 *419:io_in[5] 11.565 
*END

*D_NET *3 0.124281
*CONN
*P io_in[11] I
*I *419:io_in[6] I *D user_proj_example
*CAP
1 io_in[11] 0.00111227
2 *419:io_in[6] 0.00608911
3 *3:11 0.00608911
4 *3:9 0.024976
5 *3:7 0.0260883
6 *3:9 *38:9 0.0599266
*RES
1 io_in[11] *3:7 12.825 
2 *3:7 *3:9 275.85 
3 *3:9 *3:11 4.5 
4 *3:11 *419:io_in[6] 47.565 
*END

*D_NET *4 0.080384
*CONN
*P io_in[12] I
*I *419:io_in[7] I *D user_proj_example
*CAP
1 io_in[12] 0.00543871
2 *419:io_in[7] 0.00174577
3 *4:9 0.0347533
4 *4:7 0.0384463
*RES
1 io_in[12] *4:7 47.925 
2 *4:7 *4:9 269.37 
3 *4:9 *419:io_in[7] 16.965 
*END

*D_NET *5 0.407206
*CONN
*P io_in[13] I
*I *419:io_in[8] I *D user_proj_example
*CAP
1 io_in[13] 0.0762086
2 *419:io_in[8] 0.000344075
3 *5:13 0.0216797
4 *5:11 0.0213356
5 *5:9 0.0339088
6 *5:7 0.0339088
7 *5:5 0.0762086
8 *419:io_in[8] io_out[29] 0.000561846
9 *419:io_in[8] *6:17 0.00120881
10 *419:io_in[8] *10:13 0.000346129
11 *419:io_in[8] *11:21 0.000271089
12 *419:io_in[8] *98:19 0.00220617
13 *5:13 *10:9 0.139018
*RES
1 io_in[13] *5:5 610.425 
2 *5:5 *5:7 4.5 
3 *5:7 *5:9 276.39 
4 *5:9 *5:11 4.5 
5 *5:11 *5:13 344.79 
6 *5:13 *419:io_in[8] 18.99 
*END

*D_NET *6 0.526093
*CONN
*P io_in[14] I
*I *419:io_in[9] I *D user_proj_example
*CAP
1 io_in[14] 0.036248
2 *419:io_in[9] 0
3 *6:17 0.00519397
4 *6:15 0.00519397
5 *6:13 0.0454133
6 *6:11 0.0454133
7 *6:9 0.0418003
8 *6:7 0.0418003
9 *6:5 0.036248
10 *6:13 *10:9 0.0496406
11 *6:13 *11:19 0
12 *6:13 *90:27 0.185207
13 *6:17 *419:io_oeb[8] 0.00915793
14 *6:17 *7:13 0.00715347
15 *6:17 *10:13 0.000691978
16 *6:17 *11:21 0.000781159
17 *6:17 *13:21 0.00082438
18 *6:17 *98:19 0.0022341
19 *6:17 *100:24 0.0118833
20 *419:io_in[8] *6:17 0.00120881
*RES
1 io_in[14] *6:5 232.425 
2 *6:5 *6:7 4.5 
3 *6:7 *6:9 340.65 
4 *6:9 *6:11 4.5 
5 *6:11 *6:13 723.33 
6 *6:13 *6:15 4.5 
7 *6:15 *6:17 79.65 
8 *6:17 *419:io_in[9] 4.5 
*END

*D_NET *7 0.668327
*CONN
*P io_in[15] I
*I *419:io_in[10] I *D user_proj_example
*CAP
1 io_in[15] 0.00107539
2 *419:io_in[10] 0.00015081
3 *7:13 0.0594067
4 *7:11 0.0592559
5 *7:9 0.0623667
6 *7:7 0.0634421
7 *7:9 *11:9 0.00637329
8 *7:9 *92:23 0.341909
9 *7:13 *419:io_oeb[9] 0.00203987
10 *7:13 *11:13 0
11 *7:13 *13:21 0.0617502
12 *7:13 *100:24 0.00155364
13 *7:13 *101:27 0.0018501
14 *6:17 *7:13 0.00715347
*RES
1 io_in[15] *7:7 12.825 
2 *7:7 *7:9 938.07 
3 *7:9 *7:11 4.5 
4 *7:11 *7:13 535.05 
5 *7:13 *419:io_in[10] 5.445 
*END

*D_NET *8 0.629365
*CONN
*P io_in[16] I
*I *419:io_in[11] I *D user_proj_example
*CAP
1 io_in[16] 0.0504985
2 *419:io_in[11] 0.000134871
3 *8:13 0.0145763
4 *8:11 0.0144414
5 *8:9 0.0592157
6 *8:7 0.0592157
7 *8:5 0.0504985
8 *8:9 *9:9 0.290986
9 *8:13 io_out[29] 0.00016487
10 *8:13 *9:13 0.0882091
11 *8:13 *11:13 0.000411379
12 *8:13 *98:19 0.00101303
*RES
1 io_in[16] *8:5 389.025 
2 *8:5 *8:7 4.5 
3 *8:7 *8:9 830.79 
4 *8:9 *8:11 4.5 
5 *8:11 *8:13 224.37 
6 *8:13 *419:io_in[11] 5.625 
*END

*D_NET *9 0.69858
*CONN
*P io_in[17] I
*I *419:io_in[12] I *D user_proj_example
*CAP
1 io_in[17] 0.0504755
2 *419:io_in[12] 0.000132925
3 *9:13 0.00494197
4 *9:11 0.00480905
5 *9:9 0.0460269
6 *9:7 0.0460269
7 *9:5 0.0504755
8 *9:13 *419:io_oeb[8] 0.000661366
9 *9:13 *10:13 0.113941
10 *9:13 *11:13 2.40587e-06
11 *9:13 *13:21 0.000597608
12 *9:13 *98:19 0.00129345
13 *8:9 *9:9 0.290986
14 *8:13 *9:13 0.0882091
*RES
1 io_in[17] *9:5 388.845 
2 *9:5 *9:7 4.5 
3 *9:7 *9:9 724.59 
4 *9:9 *9:11 4.5 
5 *9:11 *9:13 294.93 
6 *9:13 *419:io_in[12] 5.445 
*END

*D_NET *10 0.74194
*CONN
*P io_in[18] I
*I *419:io_in[13] I *D user_proj_example
*CAP
1 io_in[18] 0.0511889
2 *419:io_in[13] 0.000168156
3 *10:13 0.00486093
4 *10:11 0.00469277
5 *10:9 0.0180093
6 *10:7 0.0180093
7 *10:5 0.0511889
8 *10:9 *90:27 0.143086
9 *10:13 *419:io_oeb[10] 0.000345989
10 *10:13 *419:io_oeb[8] 0.000746602
11 *10:13 *419:io_oeb[9] 0.000505676
12 *10:13 *11:21 0.140798
13 *10:13 *13:21 0.000343188
14 *10:13 *98:19 0.000821209
15 *10:13 *101:27 0.00133073
16 *10:13 *102:28 0.00117104
17 *10:13 *103:22 0.00103531
18 *419:io_in[8] *10:13 0.000346129
19 *5:13 *10:9 0.139018
20 *6:13 *10:9 0.0496406
21 *6:17 *10:13 0.000691978
22 *9:13 *10:13 0.113941
*RES
1 io_in[18] *10:5 394.065 
2 *10:5 *10:7 4.5 
3 *10:7 *10:9 618.39 
4 *10:9 *10:11 4.5 
5 *10:11 *10:13 359.91 
6 *10:13 *419:io_in[13] 5.445 
*END

*D_NET *11 0.668821
*CONN
*P io_in[19] I
*I *419:io_in[14] I *D user_proj_example
*CAP
1 io_in[19] 0.00100641
2 *419:io_in[14] 0.000186479
3 *11:21 0.00484097
4 *11:19 0.00494106
5 *11:13 0.0505909
6 *11:11 0.0503044
7 *11:9 0.0334385
8 *11:7 0.0344449
9 *11:9 *13:11 0.000137189
10 *11:9 *91:23 0.142319
11 *11:9 *92:23 0.01983
12 *11:13 *13:21 0
13 *11:21 io_out[32] 0.000212916
14 *11:21 *419:io_oeb[10] 0.000712615
15 *11:21 *419:io_oeb[11] 0.000298083
16 *11:21 *419:io_oeb[12] 0.000275229
17 *11:21 *419:io_oeb[8] 0.000787911
18 *11:21 *419:io_oeb[9] 0.00079707
19 *11:21 *13:21 0.168367
20 *11:21 *100:24 0.000652056
21 *11:21 *101:27 0.00150223
22 *11:21 *102:28 0.00132196
23 *11:21 *103:22 0.00197693
24 *11:21 *104:22 0.00124084
25 *419:io_in[8] *11:21 0.000271089
26 *6:13 *11:19 0
27 *6:17 *11:21 0.000781159
28 *7:9 *11:9 0.00637329
29 *7:13 *11:13 0
30 *8:13 *11:13 0.000411379
31 *9:13 *11:13 2.40587e-06
32 *10:13 *11:21 0.140798
*RES
1 io_in[19] *11:7 12.285 
2 *11:7 *11:9 510.75 
3 *11:9 *11:11 4.5 
4 *11:11 *11:13 388.35 
5 *11:13 *11:19 10.53 
6 *11:19 *11:21 427.95 
7 *11:21 *419:io_in[14] 5.625 
*END

*D_NET *13 0.514998
*CONN
*P io_in[20] I
*I *419:io_in[15] I *D user_proj_example
*CAP
1 io_in[20] 0.00105607
2 *419:io_in[15] 0.000117301
3 *13:21 0.0278418
4 *13:19 0.0277245
5 *13:17 0.050472
6 *13:15 0.050472
7 *13:13 0.0492732
8 *13:11 0.0503292
9 *13:21 io_out[32] 0.000480713
10 *13:21 *419:io_oeb[10] 0.00155146
11 *13:21 *419:io_oeb[11] 0.000672998
12 *13:21 *419:io_oeb[12] 0.000602837
13 *13:21 *419:io_oeb[13] 0.000420838
14 *13:21 *419:io_oeb[14] 0.000156949
15 *13:21 *419:io_oeb[8] 0.00100602
16 *13:21 *419:io_oeb[9] 0.00085781
17 *13:21 *100:24 0.000736092
18 *13:21 *101:27 0.00244143
19 *13:21 *102:28 0.00279021
20 *13:21 *103:22 0.00417263
21 *13:21 *104:22 0.00432482
22 *13:21 *105:13 0.00361776
23 *13:21 *106:17 0.00186022
24 *6:17 *13:21 0.00082438
25 *7:13 *13:21 0.0617502
26 *9:13 *13:21 0.000597608
27 *10:13 *13:21 0.000343188
28 *11:9 *13:11 0.000137189
29 *11:13 *13:21 0
30 *11:21 *13:21 0.168367
*RES
1 io_in[20] *13:11 17.595 
2 *13:11 *13:13 379.35 
3 *13:13 *13:15 4.5 
4 *13:15 *13:17 404.55 
5 *13:17 *13:19 4.5 
6 *13:19 *13:21 508.05 
7 *13:21 *419:io_in[15] 5.445 
*END

*D_NET *34 0.0914112
*CONN
*P io_in[5] I
*I *419:io_in[0] I *D user_proj_example
*CAP
1 io_in[5] 0.00615375
2 *419:io_in[0] 0.000978156
3 *34:9 0.0395519
4 *34:7 0.0385737
5 *34:5 0.00615375
*RES
1 io_in[5] *34:5 48.825 
2 *34:5 *34:7 4.5 
3 *34:7 *34:9 314.73 
4 *34:9 *419:io_in[0] 11.565 
*END

*D_NET *35 0.11743
*CONN
*P io_in[6] I
*I *419:io_in[1] I *D user_proj_example
*CAP
1 io_in[6] 0.0011292
2 *419:io_in[1] 0.00598604
3 *35:11 0.00598604
4 *35:9 0.0319093
5 *35:7 0.0330385
6 *35:9 *38:9 0.0393804
*RES
1 io_in[6] *35:7 12.825 
2 *35:7 *35:9 308.25 
3 *35:9 *35:11 4.5 
4 *35:11 *419:io_in[1] 47.565 
*END

*D_NET *36 0.0883137
*CONN
*P io_in[7] I
*I *419:io_in[2] I *D user_proj_example
*CAP
1 io_in[7] 0.00548946
2 *419:io_in[2] 0.00167676
3 *36:9 0.0386674
4 *36:7 0.0424801
*RES
1 io_in[7] *36:7 47.925 
2 *36:7 *36:9 301.77 
3 *36:9 *419:io_in[2] 16.965 
*END

*D_NET *37 0.0866398
*CONN
*P io_in[8] I
*I *419:io_in[3] I *D user_proj_example
*CAP
1 io_in[8] 0.00514886
2 *419:io_in[3] 0.00203453
3 *37:9 0.038171
4 *37:7 0.0412854
*RES
1 io_in[8] *37:7 45.225 
2 *37:7 *37:9 295.29 
3 *37:9 *419:io_in[3] 19.665 
*END

*D_NET *38 0.158184
*CONN
*P io_in[9] I
*I *419:io_in[4] I *D user_proj_example
*CAP
1 io_in[9] 0.00131687
2 *419:io_in[4] 0.00753616
3 *38:11 0.00753616
4 *38:9 0.0205855
5 *38:7 0.0219024
6 *3:9 *38:9 0.0599266
7 *35:9 *38:9 0.0393804
*RES
1 io_in[9] *38:7 12.645 
2 *38:7 *38:9 288.81 
3 *38:9 *38:11 4.5 
4 *38:11 *419:io_in[4] 47.745 
*END

*D_NET *90 0.626238
*CONN
*P io_out[21] O
*I *419:io_oeb[0] O *D user_proj_example
*I *419:io_out[0] O *D user_proj_example
*CAP
1 io_out[21] 0.0512598
2 *419:io_oeb[0] 6.14311e-05
3 *419:io_out[0] 0.00403402
4 *90:29 0.0512598
5 *90:27 0.0284095
6 *90:25 0.0284095
7 *90:23 0.0652076
8 *90:21 0.0652076
9 *90:13 0.00409545
10 *6:13 *90:27 0.185207
11 *10:9 *90:27 0.143086
*RES
1 *419:io_out[0] *90:13 38.385 
2 *90:13 *419:io_oeb[0] 0.405 
3 *90:13 *90:21 4.5 
4 *90:21 *90:23 501.03 
5 *90:23 *90:25 4.5 
6 *90:25 *90:27 636.03 
7 *90:27 *90:29 4.5 
8 *90:29 io_out[21] 394.245 
*END

*D_NET *91 0.978726
*CONN
*P io_out[22] O
*I *419:io_oeb[1] O *D user_proj_example
*I *419:io_out[1] O *D user_proj_example
*CAP
1 io_out[22] 0.00104536
2 *419:io_oeb[1] 0.000574135
3 *419:io_out[1] 0.00358518
4 *91:23 0.0266804
5 *91:21 0.025635
6 *91:19 0.0563922
7 *91:9 0.0605515
8 *91:19 *92:9 0.00921874
9 *91:19 *92:19 0.293476
10 *91:19 *93:9 0.00208895
11 *91:19 *93:19 0.0580049
12 *91:23 *92:23 0.299155
13 *11:9 *91:23 0.142319
*RES
1 *419:io_out[1] *91:9 31.095 
2 *91:9 *419:io_oeb[1] 7.605 
3 *91:9 *91:19 817.11 
4 *91:19 *91:21 4.5 
5 *91:21 *91:23 744.75 
6 *91:23 io_out[22] 12.465 
*END

*D_NET *92 1.09969
*CONN
*P io_out[23] O
*I *419:io_oeb[2] O *D user_proj_example
*I *419:io_out[2] O *D user_proj_example
*CAP
1 io_out[23] 0.00106834
2 *419:io_oeb[2] 0.000559498
3 *419:io_out[2] 0.00210717
4 *92:23 0.00349253
5 *92:21 0.00242419
6 *92:19 0.0487266
7 *92:9 0.0513933
8 *92:19 *93:9 0.000827551
9 *92:19 *93:19 0.00163765
10 *92:19 *94:9 0.00104447
11 *92:19 *94:19 0.0228247
12 *7:9 *92:23 0.341909
13 *11:9 *92:23 0.01983
14 *91:19 *92:9 0.00921874
15 *91:19 *92:19 0.293476
16 *91:23 *92:23 0.299155
*RES
1 *419:io_out[2] *92:9 31.275 
2 *92:9 *419:io_oeb[2] 7.785 
3 *92:9 *92:19 746.73 
4 *92:19 *92:21 4.5 
5 *92:21 *92:23 851.31 
6 *92:23 io_out[23] 12.645 
*END

*D_NET *93 0.699101
*CONN
*P io_out[24] O
*I *419:io_oeb[3] O *D user_proj_example
*I *419:io_out[3] O *D user_proj_example
*CAP
1 io_out[24] 0.112714
2 *419:io_oeb[3] 0.000527498
3 *419:io_out[3] 0.00500713
4 *93:21 0.112714
5 *93:19 0.0923596
6 *93:9 0.0978942
7 *93:19 *94:9 0.00944794
8 *93:19 *94:19 0.205878
9 *91:19 *93:9 0.00208895
10 *91:19 *93:19 0.0580049
11 *92:19 *93:9 0.000827551
12 *92:19 *93:19 0.00163765
*RES
1 *419:io_out[3] *93:9 31.095 
2 *93:9 *419:io_oeb[3] 7.605 
3 *93:9 *93:19 648.27 
4 *93:19 *93:21 4.5 
5 *93:21 io_out[24] 904.005 
*END

*D_NET *94 0.646155
*CONN
*P io_out[25] O
*I *419:io_oeb[4] O *D user_proj_example
*I *419:io_out[4] O *D user_proj_example
*CAP
1 io_out[25] 0.112778
2 *419:io_oeb[4] 0.000575274
3 *419:io_out[4] 0.00208297
4 *94:21 0.112778
5 *94:19 0.00826875
6 *94:9 0.010927
7 *94:19 *95:9 0.00944794
8 *94:19 *95:19 0.150101
9 *92:19 *94:9 0.00104447
10 *92:19 *94:19 0.0228247
11 *93:19 *94:9 0.00944794
12 *93:19 *94:19 0.205878
*RES
1 *419:io_out[4] *94:9 31.275 
2 *94:9 *419:io_oeb[4] 7.785 
3 *94:9 *94:19 510.03 
4 *94:19 *94:21 4.5 
5 *94:21 io_out[25] 904.185 
*END

*D_NET *95 0.510118
*CONN
*P io_out[26] O
*I *419:io_oeb[5] O *D user_proj_example
*I *419:io_out[5] O *D user_proj_example
*CAP
1 io_out[26] 0.112836
2 *419:io_oeb[5] 0.000616055
3 *419:io_out[5] 0.00212375
4 *95:21 0.112836
5 *95:19 0.00785032
6 *95:9 0.0105901
7 *95:19 *96:9 0.00944794
8 *95:19 *96:19 0.0942685
9 *94:19 *95:9 0.00944794
10 *94:19 *95:19 0.150101
*RES
1 *419:io_out[5] *95:9 31.455 
2 *95:9 *419:io_oeb[5] 7.965 
3 *95:9 *95:19 371.79 
4 *95:19 *95:21 4.5 
5 *95:21 io_out[26] 904.365 
*END

*D_NET *96 0.398069
*CONN
*P io_out[27] O
*I *419:io_oeb[6] O *D user_proj_example
*I *419:io_out[6] O *D user_proj_example
*CAP
1 io_out[27] 0.112875
2 *419:io_oeb[6] 0.000654561
3 *419:io_out[6] 0.00216225
4 *96:21 0.112875
5 *96:19 0.00751343
6 *96:9 0.0103302
7 *96:19 *97:9 0.00950733
8 *96:19 *97:19 0.0384359
9 *95:19 *96:9 0.00944794
10 *95:19 *96:19 0.0942685
*RES
1 *419:io_out[6] *96:9 31.635 
2 *96:9 *419:io_oeb[6] 8.145 
3 *96:9 *96:19 233.55 
4 *96:19 *96:21 4.5 
5 *96:21 io_out[27] 904.545 
*END

*D_NET *97 0.291404
*CONN
*P io_out[28] O
*I *419:io_oeb[7] O *D user_proj_example
*I *419:io_out[7] O *D user_proj_example
*CAP
1 io_out[28] 0.112913
2 *419:io_oeb[7] 0.000693067
3 *419:io_out[7] 0.00214378
4 *97:21 0.112913
5 *97:19 0.00598052
6 *97:9 0.00881737
7 *96:19 *97:9 0.00950733
8 *96:19 *97:19 0.0384359
*RES
1 *419:io_out[7] *97:9 31.815 
2 *97:9 *419:io_oeb[7] 8.325 
3 *97:9 *97:19 95.31 
4 *97:19 *97:21 4.5 
5 *97:21 io_out[28] 904.725 
*END

*D_NET *98 0.0344744
*CONN
*P io_out[29] O
*I *419:io_oeb[8] O *D user_proj_example
*I *419:io_out[8] O *D user_proj_example
*CAP
1 io_out[29] 0.00290719
2 *419:io_oeb[8] 0.00166279
3 *419:io_out[8] 0
4 *98:19 0.00524716
5 *98:4 0.00400276
6 *419:io_in[8] io_out[29] 0.000561846
7 *419:io_in[8] *98:19 0.00220617
8 *6:17 *419:io_oeb[8] 0.00915793
9 *6:17 *98:19 0.0022341
10 *8:13 io_out[29] 0.00016487
11 *8:13 *98:19 0.00101303
12 *9:13 *419:io_oeb[8] 0.000661366
13 *9:13 *98:19 0.00129345
14 *10:13 *419:io_oeb[8] 0.000746602
15 *10:13 *98:19 0.000821209
16 *11:21 *419:io_oeb[8] 0.000787911
17 *13:21 *419:io_oeb[8] 0.00100602
*RES
1 *419:io_out[8] *98:4 4.5 
2 *98:4 *419:io_oeb[8] 28.71 
3 *98:4 *98:19 29.3946 
4 *98:19 io_out[29] 28.5204 
*END

*D_NET *100 0.0360896
*CONN
*P io_out[30] O
*I *419:io_oeb[9] O *D user_proj_example
*I *419:io_out[9] O *D user_proj_example
*CAP
1 io_out[30] 0.000125987
2 *419:io_oeb[9] 0.00274948
3 *419:io_out[9] 0.000302585
4 *100:24 0.00471818
5 *100:11 0.00764426
6 *419:io_oeb[9] io_out[31] 0.00152355
7 *6:17 *100:24 0.0118833
8 *7:13 *419:io_oeb[9] 0.00203987
9 *7:13 *100:24 0.00155364
10 *10:13 *419:io_oeb[9] 0.000505676
11 *11:21 *419:io_oeb[9] 0.00079707
12 *11:21 *100:24 0.000652056
13 *13:21 *419:io_oeb[9] 0.00085781
14 *13:21 *100:24 0.000736092
*RES
1 *419:io_out[9] *100:11 6.165 
2 *100:11 *419:io_oeb[9] 29.61 
3 *100:11 *100:24 51.57 
4 *100:24 io_out[30] 5.445 
*END

*D_NET *101 0.0334091
*CONN
*P io_out[31] O
*I *419:io_oeb[10] O *D user_proj_example
*I *419:io_out[10] O *D user_proj_example
*CAP
1 io_out[31] 0.000977846
2 *419:io_oeb[10] 0.00234393
3 *419:io_out[10] 0.00798726
4 *101:27 0.00662118
5 *419:io_oeb[10] io_out[32] 0.00422078
6 *419:io_oeb[9] io_out[31] 0.00152355
7 *7:13 *101:27 0.0018501
8 *10:13 *419:io_oeb[10] 0.000345989
9 *10:13 *101:27 0.00133073
10 *11:21 *419:io_oeb[10] 0.000712615
11 *11:21 *101:27 0.00150223
12 *13:21 *419:io_oeb[10] 0.00155146
13 *13:21 *101:27 0.00244143
*RES
1 *419:io_out[10] *419:io_oeb[10] 33.165 
2 *419:io_out[10] *101:27 49.95 
3 *101:27 io_out[31] 15.345 
*END

*D_NET *102 0.0336993
*CONN
*P io_out[32] O
*I *419:io_oeb[11] O *D user_proj_example
*I *419:io_out[11] O *D user_proj_example
*CAP
1 io_out[32] 0.00167756
2 *419:io_oeb[11] 0.00234087
3 *419:io_out[11] 0.00722442
4 *102:28 0.00656112
5 *419:io_oeb[11] *103:22 0.00472667
6 *419:io_oeb[10] io_out[32] 0.00422078
7 *10:13 *102:28 0.00117104
8 *11:21 io_out[32] 0.000212916
9 *11:21 *419:io_oeb[11] 0.000298083
10 *11:21 *102:28 0.00132196
11 *13:21 io_out[32] 0.000480713
12 *13:21 *419:io_oeb[11] 0.000672998
13 *13:21 *102:28 0.00279021
*RES
1 *419:io_out[11] *419:io_oeb[11] 33.12 
2 *419:io_out[11] *102:28 44.37 
3 *102:28 io_out[32] 23.085 
*END

*D_NET *103 0.0364969
*CONN
*P io_out[33] O
*I *419:io_oeb[12] O *D user_proj_example
*I *419:io_out[12] O *D user_proj_example
*CAP
1 io_out[33] 0.000164493
2 *419:io_oeb[12] 0.00218545
3 *419:io_out[12] 0
4 *103:22 0.00678262
5 *103:4 0.00880357
6 *419:io_oeb[12] *104:22 0.0057712
7 *419:io_oeb[11] *103:22 0.00472667
8 *10:13 *103:22 0.00103531
9 *11:21 *419:io_oeb[12] 0.000275229
10 *11:21 *103:22 0.00197693
11 *13:21 *419:io_oeb[12] 0.000602837
12 *13:21 *103:22 0.00417263
*RES
1 *419:io_out[12] *103:4 4.5 
2 *103:4 *419:io_oeb[12] 28.665 