*SPEF "ieee 1481-1999"
*DESIGN "user_project_wrapper"
*DATE "11:11:11 Fri 11 11, 1111"
*VENDOR "OpenRCX"
*PROGRAM "Parallel Extraction"
*VERSION "1.0"
*DESIGN_FLOW "NAME_SCOPE LOCAL" "PIN_CAP NONE"
*DIVIDER /
*DELIMITER :
*BUS_DELIMITER []
*T_UNIT 1 NS
*C_UNIT 1 PF
*R_UNIT 1 OHM
*L_UNIT 1 HENRY

*NAME_MAP
*1 io_in[0]
*2 io_in[10]
*3 io_in[11]
*4 io_in[12]
*5 io_in[13]
*6 io_in[14]
*7 io_in[15]
*8 io_in[16]
*9 io_in[17]
*10 io_in[18]
*11 io_in[19]
*12 io_in[1]
*13 io_in[20]
*14 io_in[21]
*15 io_in[22]
*16 io_in[23]
*17 io_in[24]
*18 io_in[25]
*19 io_in[26]
*20 io_in[27]
*21 io_in[28]
*22 io_in[29]
*23 io_in[2]
*24 io_in[30]
*25 io_in[31]
*26 io_in[32]
*27 io_in[33]
*28 io_in[34]
*29 io_in[35]
*30 io_in[36]
*31 io_in[37]
*32 io_in[3]
*33 io_in[4]
*34 io_in[5]
*35 io_in[6]
*36 io_in[7]
*37 io_in[8]
*38 io_in[9]
*39 io_oeb[0]
*40 io_oeb[10]
*41 io_oeb[11]
*42 io_oeb[12]
*43 io_oeb[13]
*44 io_oeb[14]
*45 io_oeb[15]
*46 io_oeb[16]
*47 io_oeb[17]
*48 io_oeb[18]
*49 io_oeb[19]
*50 io_oeb[1]
*51 io_oeb[20]
*52 io_oeb[21]
*53 io_oeb[22]
*54 io_oeb[23]
*55 io_oeb[24]
*56 io_oeb[25]
*57 io_oeb[26]
*58 io_oeb[27]
*59 io_oeb[28]
*60 io_oeb[29]
*61 io_oeb[2]
*62 io_oeb[30]
*63 io_oeb[31]
*64 io_oeb[32]
*65 io_oeb[33]
*66 io_oeb[34]
*67 io_oeb[35]
*68 io_oeb[36]
*69 io_oeb[37]
*70 io_oeb[3]
*71 io_oeb[4]
*72 io_oeb[5]
*73 io_oeb[6]
*74 io_oeb[7]
*75 io_oeb[8]
*76 io_oeb[9]
*77 io_out[0]
*78 io_out[10]
*79 io_out[11]
*80 io_out[12]
*81 io_out[13]
*82 io_out[14]
*83 io_out[15]
*84 io_out[16]
*85 io_out[17]
*86 io_out[18]
*87 io_out[19]
*88 io_out[1]
*89 io_out[20]
*90 io_out[21]
*91 io_out[22]
*92 io_out[23]
*93 io_out[24]
*94 io_out[25]
*95 io_out[26]
*96 io_out[27]
*97 io_out[28]
*98 io_out[29]
*99 io_out[2]
*100 io_out[30]
*101 io_out[31]
*102 io_out[32]
*103 io_out[33]
*104 io_out[34]
*105 io_out[35]
*106 io_out[36]
*107 io_out[37]
*108 io_out[3]
*109 io_out[4]
*110 io_out[5]
*111 io_out[6]
*112 io_out[7]
*113 io_out[8]
*114 io_out[9]
*115 la_data_in[0]
*116 la_data_in[10]
*117 la_data_in[11]
*118 la_data_in[12]
*119 la_data_in[13]
*120 la_data_in[14]
*121 la_data_in[15]
*122 la_data_in[16]
*123 la_data_in[17]
*124 la_data_in[18]
*125 la_data_in[19]
*126 la_data_in[1]
*127 la_data_in[20]
*128 la_data_in[21]
*129 la_data_in[22]
*130 la_data_in[23]
*131 la_data_in[24]
*132 la_data_in[25]
*133 la_data_in[26]
*134 la_data_in[27]
*135 la_data_in[28]
*136 la_data_in[29]
*137 la_data_in[2]
*138 la_data_in[30]
*139 la_data_in[31]
*140 la_data_in[32]
*141 la_data_in[33]
*142 la_data_in[34]
*143 la_data_in[35]
*144 la_data_in[36]
*145 la_data_in[37]
*146 la_data_in[38]
*147 la_data_in[39]
*148 la_data_in[3]
*149 la_data_in[40]
*150 la_data_in[41]
*151 la_data_in[42]
*152 la_data_in[43]
*153 la_data_in[44]
*154 la_data_in[45]
*155 la_data_in[46]
*156 la_data_in[47]
*157 la_data_in[48]
*158 la_data_in[49]
*159 la_data_in[4]
*160 la_data_in[50]
*161 la_data_in[51]
*162 la_data_in[52]
*163 la_data_in[53]
*164 la_data_in[54]
*165 la_data_in[55]
*166 la_data_in[56]
*167 la_data_in[57]
*168 la_data_in[58]
*169 la_data_in[59]
*170 la_data_in[5]
*171 la_data_in[60]
*172 la_data_in[61]
*173 la_data_in[62]
*174 la_data_in[63]
*175 la_data_in[6]
*176 la_data_in[7]
*177 la_data_in[8]
*178 la_data_in[9]
*179 la_data_out[0]
*180 la_data_out[10]
*181 la_data_out[11]
*182 la_data_out[12]
*183 la_data_out[13]
*184 la_data_out[14]
*185 la_data_out[15]
*186 la_data_out[16]
*187 la_data_out[17]
*188 la_data_out[18]
*189 la_data_out[19]
*190 la_data_out[1]
*191 la_data_out[20]
*192 la_data_out[21]
*193 la_data_out[22]
*194 la_data_out[23]
*195 la_data_out[24]
*196 la_data_out[25]
*197 la_data_out[26]
*198 la_data_out[27]
*199 la_data_out[28]
*200 la_data_out[29]
*201 la_data_out[2]
*202 la_data_out[30]
*203 la_data_out[31]
*204 la_data_out[32]
*205 la_data_out[33]
*206 la_data_out[34]
*207 la_data_out[35]
*208 la_data_out[36]
*209 la_data_out[37]
*210 la_data_out[38]
*211 la_data_out[39]
*212 la_data_out[3]
*213 la_data_out[40]
*214 la_data_out[41]
*215 la_data_out[42]
*216 la_data_out[43]
*217 la_data_out[44]
*218 la_data_out[45]
*219 la_data_out[46]
*220 la_data_out[47]
*221 la_data_out[48]
*222 la_data_out[49]
*223 la_data_out[4]
*224 la_data_out[50]
*225 la_data_out[51]
*226 la_data_out[52]
*227 la_data_out[53]
*228 la_data_out[54]
*229 la_data_out[55]
*230 la_data_out[56]
*231 la_data_out[57]
*232 la_data_out[58]
*233 la_data_out[59]
*234 la_data_out[5]
*235 la_data_out[60]
*236 la_data_out[61]
*237 la_data_out[62]
*238 la_data_out[63]
*239 la_data_out[6]
*240 la_data_out[7]
*241 la_data_out[8]
*242 la_data_out[9]
*243 la_oenb[0]
*244 la_oenb[10]
*245 la_oenb[11]
*246 la_oenb[12]
*247 la_oenb[13]
*248 la_oenb[14]
*249 la_oenb[15]
*250 la_oenb[16]
*251 la_oenb[17]
*252 la_oenb[18]
*253 la_oenb[19]
*254 la_oenb[1]
*255 la_oenb[20]
*256 la_oenb[21]
*257 la_oenb[22]
*258 la_oenb[23]
*259 la_oenb[24]
*260 la_oenb[25]
*261 la_oenb[26]
*262 la_oenb[27]
*263 la_oenb[28]
*264 la_oenb[29]
*265 la_oenb[2]
*266 la_oenb[30]
*267 la_oenb[31]
*268 la_oenb[32]
*269 la_oenb[33]
*270 la_oenb[34]
*271 la_oenb[35]
*272 la_oenb[36]
*273 la_oenb[37]
*274 la_oenb[38]
*275 la_oenb[39]
*276 la_oenb[3]
*277 la_oenb[40]
*278 la_oenb[41]
*279 la_oenb[42]
*280 la_oenb[43]
*281 la_oenb[44]
*282 la_oenb[45]
*283 la_oenb[46]
*284 la_oenb[47]
*285 la_oenb[48]
*286 la_oenb[49]
*287 la_oenb[4]
*288 la_oenb[50]
*289 la_oenb[51]
*290 la_oenb[52]
*291 la_oenb[53]
*292 la_oenb[54]
*293 la_oenb[55]
*294 la_oenb[56]
*295 la_oenb[57]
*296 la_oenb[58]
*297 la_oenb[59]
*298 la_oenb[5]
*299 la_oenb[60]
*300 la_oenb[61]
*301 la_oenb[62]
*302 la_oenb[63]
*303 la_oenb[6]
*304 la_oenb[7]
*305 la_oenb[8]
*306 la_oenb[9]
*307 user_clock2
*308 user_irq[0]
*309 user_irq[1]
*310 user_irq[2]
*313 wb_clk_i
*314 wb_rst_i
*315 wbs_ack_o
*316 wbs_adr_i[0]
*317 wbs_adr_i[10]
*318 wbs_adr_i[11]
*319 wbs_adr_i[12]
*320 wbs_adr_i[13]
*321 wbs_adr_i[14]
*322 wbs_adr_i[15]
*323 wbs_adr_i[16]
*324 wbs_adr_i[17]
*325 wbs_adr_i[18]
*326 wbs_adr_i[19]
*327 wbs_adr_i[1]
*328 wbs_adr_i[20]
*329 wbs_adr_i[21]
*330 wbs_adr_i[22]
*331 wbs_adr_i[23]
*332 wbs_adr_i[24]
*333 wbs_adr_i[25]
*334 wbs_adr_i[26]
*335 wbs_adr_i[27]
*336 wbs_adr_i[28]
*337 wbs_adr_i[29]
*338 wbs_adr_i[2]
*339 wbs_adr_i[30]
*340 wbs_adr_i[31]
*341 wbs_adr_i[3]
*342 wbs_adr_i[4]
*343 wbs_adr_i[5]
*344 wbs_adr_i[6]
*345 wbs_adr_i[7]
*346 wbs_adr_i[8]
*347 wbs_adr_i[9]
*348 wbs_cyc_i
*349 wbs_dat_i[0]
*350 wbs_dat_i[10]
*351 wbs_dat_i[11]
*352 wbs_dat_i[12]
*353 wbs_dat_i[13]
*354 wbs_dat_i[14]
*355 wbs_dat_i[15]
*356 wbs_dat_i[16]
*357 wbs_dat_i[17]
*358 wbs_dat_i[18]
*359 wbs_dat_i[19]
*360 wbs_dat_i[1]
*361 wbs_dat_i[20]
*362 wbs_dat_i[21]
*363 wbs_dat_i[22]
*364 wbs_dat_i[23]
*365 wbs_dat_i[24]
*366 wbs_dat_i[25]
*367 wbs_dat_i[26]
*368 wbs_dat_i[27]
*369 wbs_dat_i[28]
*370 wbs_dat_i[29]
*371 wbs_dat_i[2]
*372 wbs_dat_i[30]
*373 wbs_dat_i[31]
*374 wbs_dat_i[3]
*375 wbs_dat_i[4]
*376 wbs_dat_i[5]
*377 wbs_dat_i[6]
*378 wbs_dat_i[7]
*379 wbs_dat_i[8]
*380 wbs_dat_i[9]
*381 wbs_dat_o[0]
*382 wbs_dat_o[10]
*383 wbs_dat_o[11]
*384 wbs_dat_o[12]
*385 wbs_dat_o[13]
*386 wbs_dat_o[14]
*387 wbs_dat_o[15]
*388 wbs_dat_o[16]
*389 wbs_dat_o[17]
*390 wbs_dat_o[18]
*391 wbs_dat_o[19]
*392 wbs_dat_o[1]
*393 wbs_dat_o[20]
*394 wbs_dat_o[21]
*395 wbs_dat_o[22]
*396 wbs_dat_o[23]
*397 wbs_dat_o[24]
*398 wbs_dat_o[25]
*399 wbs_dat_o[26]
*400 wbs_dat_o[27]
*401 wbs_dat_o[28]
*402 wbs_dat_o[29]
*403 wbs_dat_o[2]
*404 wbs_dat_o[30]
*405 wbs_dat_o[31]
*406 wbs_dat_o[3]
*407 wbs_dat_o[4]
*408 wbs_dat_o[5]
*409 wbs_dat_o[6]
*410 wbs_dat_o[7]
*411 wbs_dat_o[8]
*412 wbs_dat_o[9]
*413 wbs_sel_i[0]
*414 wbs_sel_i[1]
*415 wbs_sel_i[2]
*416 wbs_sel_i[3]
*417 wbs_stb_i
*418 wbs_we_i
*419 mprj

*PORTS
io_in[0] I
io_in[10] I
io_in[11] I
io_in[12] I
io_in[13] I
io_in[14] I
io_in[15] I
io_in[16] I
io_in[17] I
io_in[18] I
io_in[19] I
io_in[1] I
io_in[20] I
io_in[21] I
io_in[22] I
io_in[23] I
io_in[24] I
io_in[25] I
io_in[26] I
io_in[27] I
io_in[28] I
io_in[29] I
io_in[2] I
io_in[30] I
io_in[31] I
io_in[32] I
io_in[33] I
io_in[34] I
io_in[35] I
io_in[36] I
io_in[37] I
io_in[3] I
io_in[4] I
io_in[5] I
io_in[6] I
io_in[7] I
io_in[8] I
io_in[9] I
io_oeb[0] O
io_oeb[10] O
io_oeb[11] O
io_oeb[12] O
io_oeb[13] O
io_oeb[14] O
io_oeb[15] O
io_oeb[16] O
io_oeb[17] O
io_oeb[18] O
io_oeb[19] O
io_oeb[1] O
io_oeb[20] O
io_oeb[21] O
io_oeb[22] O
io_oeb[23] O
io_oeb[24] O
io_oeb[25] O
io_oeb[26] O
io_oeb[27] O
io_oeb[28] O
io_oeb[29] O
io_oeb[2] O
io_oeb[30] O
io_oeb[31] O
io_oeb[32] O
io_oeb[33] O
io_oeb[34] O
io_oeb[35] O
io_oeb[36] O
io_oeb[37] O
io_oeb[3] O
io_oeb[4] O
io_oeb[5] O
io_oeb[6] O
io_oeb[7] O
io_oeb[8] O
io_oeb[9] O
io_out[0] O
io_out[10] O
io_out[11] O
io_out[12] O
io_out[13] O
io_out[14] O
io_out[15] O
io_out[16] O
io_out[17] O
io_out[18] O
io_out[19] O
io_out[1] O
io_out[20] O
io_out[21] O
io_out[22] O
io_out[23] O
io_out[24] O
io_out[25] O
io_out[26] O
io_out[27] O
io_out[28] O
io_out[29] O
io_out[2] O
io_out[30] O
io_out[31] O
io_out[32] O
io_out[33] O
io_out[34] O
io_out[35] O
io_out[36] O
io_out[37] O
io_out[3] O
io_out[4] O
io_out[5] O
io_out[6] O
io_out[7] O
io_out[8] O
io_out[9] O
la_data_in[0] I
la_data_in[10] I
la_data_in[11] I
la_data_in[12] I
la_data_in[13] I
la_data_in[14] I
la_data_in[15] I
la_data_in[16] I
la_data_in[17] I
la_data_in[18] I
la_data_in[19] I
la_data_in[1] I
la_data_in[20] I
la_data_in[21] I
la_data_in[22] I
la_data_in[23] I
la_data_in[24] I
la_data_in[25] I
la_data_in[26] I
la_data_in[27] I
la_data_in[28] I
la_data_in[29] I
la_data_in[2] I
la_data_in[30] I
la_data_in[31] I
la_data_in[32] I
la_data_in[33] I
la_data_in[34] I
la_data_in[35] I
la_data_in[36] I
la_data_in[37] I
la_data_in[38] I
la_data_in[39] I
la_data_in[3] I
la_data_in[40] I
la_data_in[41] I
la_data_in[42] I
la_data_in[43] I
la_data_in[44] I
la_data_in[45] I
la_data_in[46] I
la_data_in[47] I
la_data_in[48] I
la_data_in[49] I
la_data_in[4] I
la_data_in[50] I
la_data_in[51] I
la_data_in[52] I
la_data_in[53] I
la_data_in[54] I
la_data_in[55] I
la_data_in[56] I
la_data_in[57] I
la_data_in[58] I
la_data_in[59] I
la_data_in[5] I
la_data_in[60] I
la_data_in[61] I
la_data_in[62] I
la_data_in[63] I
la_data_in[6] I
la_data_in[7] I
la_data_in[8] I
la_data_in[9] I
la_data_out[0] O
la_data_out[10] O
la_data_out[11] O
la_data_out[12] O
la_data_out[13] O
la_data_out[14] O
la_data_out[15] O
la_data_out[16] O
la_data_out[17] O
la_data_out[18] O
la_data_out[19] O
la_data_out[1] O
la_data_out[20] O
la_data_out[21] O
la_data_out[22] O
la_data_out[23] O
la_data_out[24] O
la_data_out[25] O
la_data_out[26] O
la_data_out[27] O
la_data_out[28] O
la_data_out[29] O
la_data_out[2] O
la_data_out[30] O
la_data_out[31] O
la_data_out[32] O
la_data_out[33] O
la_data_out[34] O
la_data_out[35] O
la_data_out[36] O
la_data_out[37] O
la_data_out[38] O
la_data_out[39] O
la_data_out[3] O
la_data_out[40] O
la_data_out[41] O
la_data_out[42] O
la_data_out[43] O
la_data_out[44] O
la_data_out[45] O
la_data_out[46] O
la_data_out[47] O
la_data_out[48] O
la_data_out[49] O
la_data_out[4] O
la_data_out[50] O
la_data_out[51] O
la_data_out[52] O
la_data_out[53] O
la_data_out[54] O
la_data_out[55] O
la_data_out[56] O
la_data_out[57] O
la_data_out[58] O
la_data_out[59] O
la_data_out[5] O
la_data_out[60] O
la_data_out[61] O
la_data_out[62] O
la_data_out[63] O
la_data_out[6] O
la_data_out[7] O
la_data_out[8] O
la_data_out[9] O
la_oenb[0] I
la_oenb[10] I
la_oenb[11] I
la_oenb[12] I
la_oenb[13] I
la_oenb[14] I
la_oenb[15] I
la_oenb[16] I
la_oenb[17] I
la_oenb[18] I
la_oenb[19] I
la_oenb[1] I
la_oenb[20] I
la_oenb[21] I
la_oenb[22] I
la_oenb[23] I
la_oenb[24] I
la_oenb[25] I
la_oenb[26] I
la_oenb[27] I
la_oenb[28] I
la_oenb[29] I
la_oenb[2] I
la_oenb[30] I
la_oenb[31] I
la_oenb[32] I
la_oenb[33] I
la_oenb[34] I
la_oenb[35] I
la_oenb[36] I
la_oenb[37] I
la_oenb[38] I
la_oenb[39] I
la_oenb[3] I
la_oenb[40] I
la_oenb[41] I
la_oenb[42] I
la_oenb[43] I
la_oenb[44] I
la_oenb[45] I
la_oenb[46] I
la_oenb[47] I
la_oenb[48] I
la_oenb[49] I
la_oenb[4] I
la_oenb[50] I
la_oenb[51] I
la_oenb[52] I
la_oenb[53] I
la_oenb[54] I
la_oenb[55] I
la_oenb[56] I
la_oenb[57] I
la_oenb[58] I
la_oenb[59] I
la_oenb[5] I
la_oenb[60] I
la_oenb[61] I
la_oenb[62] I
la_oenb[63] I
la_oenb[6] I
la_oenb[7] I
la_oenb[8] I
la_oenb[9] I
user_clock2 I
user_irq[0] O
user_irq[1] O
user_irq[2] O
wb_clk_i I
wb_rst_i I
wbs_ack_o O
wbs_adr_i[0] I
wbs_adr_i[10] I
wbs_adr_i[11] I
wbs_adr_i[12] I
wbs_adr_i[13] I
wbs_adr_i[14] I
wbs_adr_i[15] I
wbs_adr_i[16] I
wbs_adr_i[17] I
wbs_adr_i[18] I
wbs_adr_i[19] I
wbs_adr_i[1] I
wbs_adr_i[20] I
wbs_adr_i[21] I
wbs_adr_i[22] I
wbs_adr_i[23] I
wbs_adr_i[24] I
wbs_adr_i[25] I
wbs_adr_i[26] I
wbs_adr_i[27] I
wbs_adr_i[28] I
wbs_adr_i[29] I
wbs_adr_i[2] I
wbs_adr_i[30] I
wbs_adr_i[31] I
wbs_adr_i[3] I
wbs_adr_i[4] I
wbs_adr_i[5] I
wbs_adr_i[6] I
wbs_adr_i[7] I
wbs_adr_i[8] I
wbs_adr_i[9] I
wbs_cyc_i I
wbs_dat_i[0] I
wbs_dat_i[10] I
wbs_dat_i[11] I
wbs_dat_i[12] I
wbs_dat_i[13] I
wbs_dat_i[14] I
wbs_dat_i[15] I
wbs_dat_i[16] I
wbs_dat_i[17] I
wbs_dat_i[18] I
wbs_dat_i[19] I
wbs_dat_i[1] I
wbs_dat_i[20] I
wbs_dat_i[21] I
wbs_dat_i[22] I
wbs_dat_i[23] I
wbs_dat_i[24] I
wbs_dat_i[25] I
wbs_dat_i[26] I
wbs_dat_i[27] I
wbs_dat_i[28] I
wbs_dat_i[29] I
wbs_dat_i[2] I
wbs_dat_i[30] I
wbs_dat_i[31] I
wbs_dat_i[3] I
wbs_dat_i[4] I
wbs_dat_i[5] I
wbs_dat_i[6] I
wbs_dat_i[7] I
wbs_dat_i[8] I
wbs_dat_i[9] I
wbs_dat_o[0] O
wbs_dat_o[10] O
wbs_dat_o[11] O
wbs_dat_o[12] O
wbs_dat_o[13] O
wbs_dat_o[14] O
wbs_dat_o[15] O
wbs_dat_o[16] O
wbs_dat_o[17] O
wbs_dat_o[18] O
wbs_dat_o[19] O
wbs_dat_o[1] O
wbs_dat_o[20] O
wbs_dat_o[21] O
wbs_dat_o[22] O
wbs_dat_o[23] O
wbs_dat_o[24] O
wbs_dat_o[25] O
wbs_dat_o[26] O
wbs_dat_o[27] O
wbs_dat_o[28] O
wbs_dat_o[29] O
wbs_dat_o[2] O
wbs_dat_o[30] O
wbs_dat_o[31] O
wbs_dat_o[3] O
wbs_dat_o[4] O
wbs_dat_o[5] O
wbs_dat_o[6] O
wbs_dat_o[7] O
wbs_dat_o[8] O
wbs_dat_o[9] O
wbs_sel_i[0] I
wbs_sel_i[1] I
wbs_sel_i[2] I
wbs_sel_i[3] I
wbs_stb_i I
wbs_we_i I

*D_NET *2 0.0879506
*CONN
*P io_in[10] I
*I *419:io_in[5] I *D user_proj_example
*CAP
1 io_in[10] 0.00647078
2 *419:io_in[5] 0.00114392
3 *2:9 0.0375045
4 *2:7 0.0363606
5 *2:5 0.00647078
*RES
1 io_in[10] *2:5 56.42 
2 *2:5 *2:7 4.5 
3 *2:7 *2:9 326.248 
4 *2:9 *419:io_in[5] 12.664 
*END

*D_NET *3 0.136764
*CONN
*P io_in[11] I
*I *419:io_in[6] I *D user_proj_example
*CAP
1 io_in[11] 0.00119074
2 *419:io_in[6] 0.00646693
3 *3:11 0.00646693
4 *3:9 0.026387
5 *3:7 0.0275777
6 *3:9 *38:9 0.0686752
*RES
1 io_in[11] *3:7 14.12 
2 *3:7 *3:9 318.76 
3 *3:9 *3:11 4.5 
4 *3:11 *419:io_in[6] 54.964 
*END

*D_NET *4 0.0848643
*CONN
*P io_in[12] I
*I *419:io_in[7] I *D user_proj_example
*CAP
1 io_in[12] 0.0057496
2 *419:io_in[7] 0.0018866
3 *4:9 0.0366825
4 *4:7 0.0347959
5 *4:5 0.0057496
*RES
1 io_in[12] *4:5 50.18 
2 *4:5 *4:7 4.5 
3 *4:7 *4:9 311.272 
4 *4:9 *419:io_in[7] 18.904 
*END

*D_NET *5 0.442739
*CONN
*P io_in[13] I
*I *419:io_in[8] I *D user_proj_example
*CAP
1 io_in[13] 0.0805139
2 *419:io_in[8] 0.000395419
3 *5:13 0.0229016
4 *5:11 0.0225061
5 *5:9 0.0357569
6 *5:7 0.0357569
7 *5:5 0.0805139
8 *419:io_in[8] io_out[29] 0.000589332
9 *419:io_in[8] *6:17 0.00126838
10 *419:io_in[8] *10:13 0.000382742
11 *419:io_in[8] *11:21 0.000308271
12 *419:io_in[8] *98:19 0.0025288
13 *5:13 *10:9 0.159316
*RES
1 io_in[13] *5:5 705.38 
2 *5:5 *5:7 4.5 
3 *5:7 *5:9 319.384 
4 *5:9 *5:11 4.5 
5 *5:11 *5:13 398.424 
6 *5:13 *419:io_in[8] 20.544 
*END

*D_NET *6 0.576824
*CONN
*P io_in[14] I
*I *419:io_in[9] I *D user_proj_example
*CAP
1 io_in[14] 0.0390361
2 *419:io_in[9] 0
3 *6:17 0.00550736
4 *6:15 0.00550736
5 *6:13 0.0481595
6 *6:11 0.0481595
7 *6:9 0.0440802
8 *6:7 0.0440802
9 *6:5 0.0390361
10 *6:13 *10:9 0.0528153
11 *6:13 *11:19 0
12 *6:13 *90:27 0.212249
13 *6:17 *419:io_oeb[8] 0.0104858
14 *6:17 *7:13 0.00791016
15 *6:17 *10:13 0.000761299
16 *6:17 *11:21 0.000872333
17 *6:17 *13:21 0.000937453
18 *6:17 *98:19 0.00234045
19 *6:17 *100:24 0.0136181
20 *419:io_in[8] *6:17 0.00126838
*RES
1 io_in[14] *6:5 268.58 
2 *6:5 *6:7 4.5 
3 *6:7 *6:9 393.64 
4 *6:9 *6:11 4.5 
5 *6:11 *6:13 835.848 
6 *6:13 *6:15 4.5 
7 *6:15 *6:17 92.04 
8 *6:17 *419:io_in[9] 4.5 
*END

*D_NET *7 0.743909
*CONN
*P io_in[15] I
*I *419:io_in[10] I *D user_proj_example
*CAP
1 io_in[15] 0.00113656
2 *419:io_in[10] 0.000162422
3 *7:13 0.062758
4 *7:11 0.0625956
5 *7:9 0.0661626
6 *7:7 0.0672991
7 *419:io_in[10] *101:25 0.000207446
8 *7:9 *11:9 0.00668276
9 *7:9 *92:23 0.391839
10 *7:13 *419:io_oeb[9] 0.00227176
11 *7:13 *11:13 0
12 *7:13 *13:21 0.0708612
13 *7:13 *100:11 0.000209471
14 *7:13 *100:24 0.00176674
15 *7:13 *101:25 0.0020458
16 *6:17 *7:13 0.00791016
*RES
1 io_in[15] *7:7 14.12 
2 *7:7 *7:9 1083.99 
3 *7:9 *7:11 4.5 
4 *7:11 *7:13 618.28 
5 *7:13 *419:io_in[10] 5.592 
*END

*D_NET *8 0.699506
*CONN
*P io_in[16] I
*I *419:io_in[11] I *D user_proj_example
*CAP
1 io_in[16] 0.0533368
2 *419:io_in[11] 0.00014129
3 *8:13 0.0154332
4 *8:11 0.0152919
5 *8:9 0.0627502
6 *8:7 0.0627502
7 *8:5 0.0533368
8 *8:9 *9:9 0.33348
9 *8:13 io_out[29] 0.000187484
10 *8:13 *9:13 0.101224
11 *8:13 *11:13 0.000422847
12 *8:13 *98:19 0.00115198
*RES
1 io_in[16] *8:5 449.54 
2 *8:5 *8:7 4.5 
3 *8:7 *8:9 960.024 
4 *8:9 *8:11 4.5 
5 *8:11 *8:13 259.272 
6 *8:13 *419:io_in[11] 5.8 
*END

*D_NET *9 0.783123
*CONN
*P io_in[17] I
*I *419:io_in[12] I *D user_proj_example
*CAP
1 io_in[17] 0.0533126
2 *419:io_in[12] 0.000140008
3 *9:13 0.00529773
4 *9:11 0.00515772
5 *9:9 0.0488315
6 *9:7 0.0488315
7 *9:5 0.0533126
8 *9:13 *419:io_oeb[8] 0.000727621
9 *9:13 *10:13 0.130752
10 *9:13 *11:13 2.39156e-06
11 *9:13 *13:21 0.000623558
12 *9:13 *98:19 0.00143027
13 *8:9 *9:9 0.33348
14 *8:13 *9:13 0.101224
*RES
1 io_in[17] *9:5 449.332 
2 *9:5 *9:7 4.5 
3 *9:7 *9:9 837.304 
4 *9:9 *9:11 4.5 
5 *9:11 *9:13 340.808 
6 *9:13 *419:io_in[12] 5.592 
*END

*D_NET *10 0.833854
*CONN
*P io_in[18] I
*I *419:io_in[13] I *D user_proj_example
*CAP
1 io_in[18] 0.0540709
2 *419:io_in[13] 0.000181044
3 *10:13 0.00522445
4 *10:11 0.0050434
5 *10:9 0.0193628
6 *10:7 0.0193628
7 *10:5 0.0540709
8 *10:9 *90:27 0.163978
9 *10:13 *419:io_oeb[10] 0.000380649
10 *10:13 *419:io_oeb[8] 0.000833743
11 *10:13 *419:io_oeb[9] 0.000556334
12 *10:13 *11:21 0.161572
13 *10:13 *13:21 0.000364136
14 *10:13 *98:19 0.000933847
15 *10:13 *101:25 0.00146404
16 *10:13 *102:28 0.00128835
17 *10:13 *103:22 0.00113902
18 *419:io_in[8] *10:13 0.000382742
19 *5:13 *10:9 0.159316
20 *6:13 *10:9 0.0528153
21 *6:17 *10:13 0.000761299
22 *9:13 *10:13 0.130752
*RES
1 io_in[18] *10:5 455.364 
2 *10:5 *10:7 4.5 
3 *10:7 *10:9 714.584 
4 *10:9 *10:11 4.5 
5 *10:11 *10:13 415.896 
6 *10:13 *419:io_in[13] 5.592 
*END

*D_NET *11 0.749088
*CONN
*P io_in[19] I
*I *419:io_in[14] I *D user_proj_example
*CAP
1 io_in[19] 0.00106383
2 *419:io_in[14] 0.000201125
3 *11:21 0.00521227
4 *11:19 0.00533479
5 *11:13 0.0534739
6 *11:11 0.0531502
7 *11:9 0.0356414
8 *11:7 0.0367052
9 *11:9 *13:11 0.000142995
10 *11:9 *91:23 0.163102
11 *11:9 *92:23 0.0210883
12 *11:13 *13:21 0
13 *11:21 io_out[32] 0.000234246
14 *11:21 *419:io_oeb[10] 0.000790463
15 *11:21 *419:io_oeb[11] 0.000327944
16 *11:21 *419:io_oeb[12] 0.000304887
17 *11:21 *419:io_oeb[8] 0.000895982
18 *11:21 *419:io_oeb[9] 0.00088636
19 *11:21 *13:21 0.193207
20 *11:21 *100:24 0.000717378
21 *11:21 *101:25 0.00167756
22 *11:21 *102:28 0.00147626
23 *11:21 *103:22 0.00220767
24 *11:21 *104:22 0.00138567
25 *419:io_in[8] *11:21 0.000308271
26 *6:13 *11:19 0
27 *6:17 *11:21 0.000872333
28 *7:9 *11:9 0.00668276
29 *7:13 *11:13 0
30 *8:13 *11:13 0.000422847
31 *9:13 *11:13 2.39156e-06
32 *10:13 *11:21 0.161572
*RES
1 io_in[19] *11:7 13.496 
2 *11:7 *11:9 590.2 
3 *11:9 *11:11 4.5 
4 *11:11 *11:13 448.76 
5 *11:13 *11:19 10.768 
6 *11:19 *11:21 494.52 
7 *11:21 *419:io_in[14] 5.8 
*END

*D_NET *13 0.567318
*CONN
*P io_in[20] I
*I *419:io_in[15] I *D user_proj_example
*CAP
1 io_in[20] 0.0011197
2 *419:io_in[15] 0.000123445
3 *13:21 0.0294788
4 *13:19 0.0293554
5 *13:17 0.0533148
6 *13:15 0.0533148
7 *13:13 0.0520473
8 *13:11 0.053167
9 *419:io_in[15] *106:17 0.000207446
10 *13:21 io_out[32] 0.00053682
11 *13:21 *419:io_oeb[10] 0.00174939
12 *13:21 *419:io_oeb[11] 0.000751549
13 *13:21 *419:io_oeb[12] 0.000678644
14 *13:21 *419:io_oeb[13] 0.000469958
15 *13:21 *419:io_oeb[14] 0.000178477
16 *13:21 *419:io_oeb[8] 0.00111243
17 *13:21 *419:io_oeb[9] 0.000970248
18 *13:21 *100:24 0.000822006
19 *13:21 *101:25 0.0027763
20 *13:21 *102:28 0.00317292
21 *13:21 *103:22 0.00474495
22 *13:21 *104:22 0.00491802
23 *13:21 *105:13 0.00411398
24 *13:21 *106:17 0.002057
25 *6:17 *13:21 0.000937453
26 *7:13 *13:21 0.0708612
27 *9:13 *13:21 0.000623558
28 *10:13 *13:21 0.000364136
29 *11:9 *13:11 0.000142995
30 *11:13 *13:21 0
31 *11:21 *13:21 0.193207
*RES
1 io_in[20] *13:11 18.932 
2 *13:11 *13:13 438.36 
3 *13:13 *13:15 4.5 
4 *13:15 *13:17 467.48 
5 *13:17 *13:19 4.5 
6 *13:19 *13:21 587.08 
7 *13:21 *419:io_in[15] 5.592 
*END

*D_NET *34 0.0964712
*CONN
*P io_in[5] I
*I *419:io_in[0] I *D user_proj_example
*CAP
1 io_in[5] 0.0065138
2 *419:io_in[0] 0.00105403
3 *34:9 0.0417218
4 *34:7 0.0406678
5 *34:5 0.0065138
*RES
1 io_in[5] *34:5 56.42 
2 *34:5 *34:7 4.5 
3 *34:7 *34:9 363.688 
4 *34:9 *419:io_in[0] 12.664 
*END

*D_NET *35 0.12756
*CONN
*P io_in[6] I
*I *419:io_in[1] I *D user_proj_example
*CAP
1 io_in[6] 0.00121226
2 *419:io_in[1] 0.00633425
3 *35:11 0.00633425
4 *35:9 0.0336688
5 *35:7 0.0348811
6 *35:9 *38:9 0.0451294
*RES
1 io_in[6] *35:7 14.12 
2 *35:7 *35:9 356.2 
3 *35:9 *35:11 4.5 
4 *35:11 *419:io_in[1] 54.964 
*END

*D_NET *36 0.093222
*CONN
*P io_in[7] I
*I *419:io_in[2] I *D user_proj_example
*CAP
1 io_in[7] 0.00581411
2 *419:io_in[2] 0.00179708
3 *36:9 0.0407969
4 *36:7 0.0389998
5 *36:5 0.00581411
*RES
1 io_in[7] *36:5 50.18 
2 *36:5 *36:7 4.5 
3 *36:7 *36:9 348.712 
4 *36:9 *419:io_in[2] 18.904 
*END

*D_NET *37 0.0914466
*CONN
*P io_in[8] I
*I *419:io_in[3] I *D user_proj_example
*CAP
1 io_in[8] 0.00545351
2 *419:io_in[3] 0.00217936
3 *37:9 0.0402698
4 *37:7 0.0380904
5 *37:5 0.00545351
*RES
1 io_in[8] *37:5 47.06 
2 *37:5 *37:7 4.5 
3 *37:7 *37:9 341.224 
4 *37:9 *419:io_in[3] 22.024 
*END

*D_NET *38 0.176487
*CONN
*P io_in[9] I
*I *419:io_in[4] I *D user_proj_example
*CAP
1 io_in[9] 0.00143005
2 *419:io_in[4] 0.00813848
3 *38:11 0.00813848
4 *38:9 0.0217727
5 *38:7 0.0232028
6 *3:9 *38:9 0.0686752
7 *35:9 *38:9 0.0451294
*RES
1 io_in[9] *38:7 13.912 
2 *38:7 *38:9 333.736 
3 *38:9 *38:11 4.5 
4 *38:11 *419:io_in[4] 55.172 
*END

*D_NET *90 0.691078
*CONN
*P io_out[21] O
*I *419:io_oeb[0] O *D user_proj_example
*I *419:io_out[0] O *D user_proj_example
*CAP
1 io_out[21] 0.0541563
2 *419:io_oeb[0] 6.7136e-05
3 *419:io_out[0] 0.0043157
4 *90:29 0.0541563
5 *90:27 0.0299805
6 *90:25 0.0299805
7 *90:23 0.0689058
8 *90:21 0.0689058
9 *90:13 0.00438284
10 *6:13 *90:27 0.212249
11 *10:9 *90:27 0.163978
*RES
1 *419:io_out[0] *90:13 42.956 
2 *90:13 *419:io_oeb[0] 0.468 
3 *90:13 *90:21 4.5 
4 *90:21 *90:23 578.968 
5 *90:23 *90:25 4.5 
6 *90:25 *90:27 734.968 
7 *90:27 *90:29 4.5 
8 *90:29 io_out[21] 455.572 
*END

*D_NET *91 1.10511
*CONN
*P io_out[22] O
*I *419:io_oeb[1] O *D user_proj_example
*I *419:io_out[1] O *D user_proj_example
*CAP
1 io_out[22] 0.00110846
2 *419:io_oeb[1] 0.000640571
3 *419:io_out[1] 0.00381831
4 *91:23 0.0285192
5 *91:21 0.0274107
6 *91:19 0.0597022
7 *91:9 0.0641611
8 *91:19 *92:9 0.0105791
9 *91:19 *92:19 0.336776
10 *91:19 *93:9 0.00230992
11 *91:19 *93:19 0.0641406
12 *91:23 *92:23 0.342841
13 *11:9 *91:23 0.163102
*RES
1 *419:io_out[1] *91:9 35.232 
2 *91:9 *419:io_oeb[1] 8.088 
3 *91:9 *91:19 944.216 
4 *91:19 *91:21 4.5 
5 *91:21 *91:23 860.6 
6 *91:23 io_out[22] 13.704 
*END

*D_NET *92 1.24996
*CONN
*P io_out[23] O
*I *419:io_oeb[2] O *D user_proj_example
*I *419:io_out[2] O *D user_proj_example
*CAP
1 io_out[23] 0.00113269
2 *419:io_oeb[2] 0.000622803
3 *419:io_out[2] 0.00226475
4 *92:23 0.0043402
5 *92:21 0.00320751
6 *92:19 0.0515898
7 *92:9 0.0544774
8 *92:19 *93:9 0.000941058
9 *92:19 *93:19 0.00186227
10 *92:19 *94:9 0.00115496
11 *92:19 *94:19 0.025239
12 *7:9 *92:23 0.391839
13 *11:9 *92:23 0.0210883
14 *91:19 *92:9 0.0105791
15 *91:19 *92:19 0.336776
16 *91:23 *92:23 0.342841
*RES
1 *419:io_out[2] *92:9 35.44 
2 *92:9 *419:io_oeb[2] 8.296 
3 *92:9 *92:19 862.888 
4 *92:19 *92:21 4.5 
5 *92:21 *92:23 983.736 
6 *92:23 io_out[23] 13.912 
*END

*D_NET *93 0.766963
*CONN
*P io_out[24] O
*I *419:io_oeb[3] O *D user_proj_example
*I *419:io_out[3] O *D user_proj_example
*CAP
1 io_out[24] 0.119048
2 *419:io_oeb[3] 0.000587806
3 *419:io_out[3] 0.00540951
4 *93:21 0.119048
5 *93:19 0.100429
6 *93:9 0.106426
7 *93:19 *94:9 0.0108277
8 *93:19 *94:19 0.235934
9 *91:19 *93:9 0.00230992
10 *91:19 *93:19 0.0641406
11 *92:19 *93:9 0.000941058
12 *92:19 *93:19 0.00186227
*RES
1 *419:io_out[3] *93:9 35.232 
2 *93:9 *419:io_oeb[3] 8.088 
3 *93:9 *93:19 749.112 
4 *93:19 *93:21 4.5 
5 *93:21 io_out[24] 1044.63 
*END

*D_NET *94 0.718054
*CONN
*P io_out[25] O
*I *419:io_oeb[4] O *D user_proj_example
*I *419:io_out[4] O *D user_proj_example
*CAP
1 io_out[25] 0.119126
2 *419:io_oeb[4] 0.000644542
3 *419:io_out[4] 0.00224879
4 *94:21 0.119126
5 *94:19 0.00900941
6 *94:9 0.0119027
7 *94:19 *95:9 0.0108277
8 *94:19 *95:19 0.172014
9 *92:19 *94:9 0.00115496
10 *92:19 *94:19 0.025239
11 *93:19 *94:9 0.0108277
12 *93:19 *94:19 0.235934
*RES
1 *419:io_out[4] *94:9 35.44 
2 *94:9 *419:io_oeb[4] 8.296 
3 *94:9 *94:19 589.368 
4 *94:19 *94:21 4.5 
5 *94:21 io_out[25] 1044.84 
*END

*D_NET *95 0.563008
*CONN
*P io_out[26] O
*I *419:io_oeb[5] O *D user_proj_example
*I *419:io_out[5] O *D user_proj_example
*CAP
1 io_out[26] 0.119195
2 *419:io_oeb[5] 0.000691767
3 *419:io_out[5] 0.00229601
4 *95:21 0.119195
5 *95:19 0.00847173
6 *95:9 0.0114595
7 *95:19 *96:9 0.0108277
8 *95:19 *96:19 0.10803
9 *94:19 *95:9 0.0108277
10 *94:19 *95:19 0.172014
*RES
1 *419:io_out[5] *95:9 35.648 
2 *95:9 *419:io_oeb[5] 8.504 
3 *95:9 *95:19 429.624 
4 *95:19 *95:21 4.5 
5 *95:21 io_out[26] 1045.04 
*END

*D_NET *96 0.434496
*CONN
*P io_out[27] O
*I *419:io_oeb[6] O *D user_proj_example
*I *419:io_out[6] O *D user_proj_example
*CAP
1 io_out[27] 0.119239
2 *419:io_oeb[6] 0.000735889
3 *419:io_out[6] 0.00234013
4 *96:21 0.119239
5 *96:19 0.008033
6 *96:9 0.011109
7 *96:19 *97:9 0.0108948
8 *96:19 *97:19 0.0440475
9 *95:19 *96:9 0.0108277
10 *95:19 *96:19 0.10803
*RES
1 *419:io_out[6] *96:9 35.856 
2 *96:9 *419:io_oeb[6] 8.712 
3 *96:9 *96:19 269.88 
4 *96:19 *96:21 4.5 
5 *96:21 io_out[27] 1045.25 
*END

*D_NET *97 0.31237
*CONN
*P io_out[28] O
*I *419:io_oeb[7] O *D user_proj_example
*I *419:io_out[7] O *D user_proj_example
*CAP
1 io_out[28] 0.119283
2 *419:io_oeb[7] 0.000780012
3 *419:io_out[7] 0.00231408
4 *97:21 0.119283
5 *97:19 0.00633688
6 *97:9 0.00943097
7 *96:19 *97:9 0.0108948
8 *96:19 *97:19 0.0440475
*RES
1 *419:io_out[7] *97:9 36.064 
2 *97:9 *419:io_oeb[7] 8.92 
3 *97:9 *97:19 110.136 
4 *97:19 *97:21 4.5 
5 *97:21 io_out[28] 1045.46 
*END

*D_NET *98 0.0379191
*CONN
*P io_out[29] O
*I *419:io_oeb[8] O *D user_proj_example
*I *419:io_out[8] O *D user_proj_example
*CAP
1 io_out[29] 0.00310052
2 *419:io_oeb[8] 0.00176959
3 *419:io_out[8] 0
4 *98:19 0.00558107
5 *98:4 0.00425014
6 *419:io_in[8] io_out[29] 0.000589332
7 *419:io_in[8] *98:19 0.0025288
8 *6:17 *419:io_oeb[8] 0.0104858
9 *6:17 *98:19 0.00234045
10 *8:13 io_out[29] 0.000187484
11 *8:13 *98:19 0.00115198
12 *9:13 *419:io_oeb[8] 0.000727621
13 *9:13 *98:19 0.00143027
14 *10:13 *419:io_oeb[8] 0.000833743
15 *10:13 *98:19 0.000933847
16 *11:21 *419:io_oeb[8] 0.000895982
17 *13:21 *419:io_oeb[8] 0.00111243
*RES
1 *419:io_out[8] *98:4 4.5 
2 *98:4 *419:io_oeb[8] 32.476 
3 *98:4 *98:19 33.9671 
4 *98:19 io_out[29] 32.2569 
*END

*D_NET *100 0.0397248
*CONN
*P io_out[30] O
*I *419:io_oeb[9] O *D user_proj_example
*I *419:io_out[9] O *D user_proj_example
*CAP
1 io_out[30] 0.000134821
2 *419:io_oeb[9] 0.00292228
3 *419:io_out[9] 0.000230203
4 *100:24 0.00499071
5 *100:11 0.00800838
6 *419:io_oeb[9] io_out[31] 0.00162006
7 *6:17 *100:24 0.0136181
8 *7:13 *419:io_oeb[9] 0.00227176
9 *7:13 *100:11 0.000209471
10 *7:13 *100:24 0.00176674
11 *10:13 *419:io_oeb[9] 0.000556334
12 *11:21 *419:io_oeb[9] 0.00088636
13 *11:21 *100:24 0.000717378
14 *13:21 *419:io_oeb[9] 0.000970248
15 *13:21 *100:24 0.000822006
*RES
1 *419:io_out[9] *100:11 6.424 
2 *100:11 *419:io_oeb[9] 33.516 
3 *100:11 *100:24 59.592 
4 *100:24 io_out[30] 5.592 
*END

*D_NET *101 0.0363005
*CONN
*P io_out[31] O
*I *419:io_oeb[10] O *D user_proj_example
*I *419:io_out[10] O *D user_proj_example
*CAP
1 io_out[31] 0.00110792
2 *419:io_oeb[10] 0.00247456
3 *419:io_out[10] 0.00247456
4 *101:25 0.00690173
5 *101:23 0.00579381
6 *419:io_oeb[10] io_out[32] 0.0048362
7 *419:io_in[10] *101:25 0.000207446
8 *419:io_oeb[9] io_out[31] 0.00162006
9 *7:13 *101:25 0.0020458
10 *10:13 *419:io_oeb[10] 0.000380649
11 *10:13 *101:25 0.00146404
12 *11:21 *419:io_oeb[10] 0.000790463
13 *11:21 *101:25 0.00167756
14 *13:21 *419:io_oeb[10] 0.00174939
15 *13:21 *101:25 0.0027763
*RES
1 *419:io_out[10] *419:io_oeb[10] 36.924 
2 *419:io_out[10] *101:23 4.5 
3 *101:23 *101:25 52 
4 *101:25 io_out[31] 17.552 
*END

*D_NET *102 0.0368612
*CONN
*P io_out[32] O
*I *419:io_oeb[11] O *D user_proj_example
*I *419:io_out[11] O *D user_proj_example
*CAP
1 io_out[32] 0.00177545
2 *419:io_oeb[11] 0.00248623
3 *419:io_out[11] 0.00248623
4 *102:28 0.00692369
5 *102:24 0.00514824
6 *419:io_oeb[11] *103:22 0.00541709
7 *419:io_oeb[10] io_out[32] 0.0048362
8 *10:13 *102:28 0.00128835
9 *11:21 io_out[32] 0.000234246
10 *11:21 *419:io_oeb[11] 0.000327944
11 *11:21 *102:28 0.00147626
12 *13:21 io_out[32] 0.00053682
13 *13:21 *419:io_oeb[11] 0.000751549
14 *13:21 *102:28 0.00317292
*RES
1 *419:io_out[11] *419:io_oeb[11] 36.872 
2 *419:io_out[11] *102:24 4.5 
3 *102:24 *102:28 46.072 
4 *102:28 io_out[32] 25.976 
*END

*D_NET *103 0.0400911
*CONN
*P io_out[33] O
*I *419:io_oeb[12] O *D user_proj_example
*I *419:io_out[12] O *D user_proj_example
*CAP
1 io_out[33] 0.000178943
2 *419:io_oeb[12] 0.00232453
3 *419:io_out[12] 0