*SPEF "ieee 1481-1999"
*DESIGN "user_project_wrapper"
*DATE "11:11:11 Fri 11 11, 1111"
*VENDOR "OpenRCX"
*PROGRAM "Parallel Extraction"
*VERSION "1.0"
*DESIGN_FLOW "NAME_SCOPE LOCAL" "PIN_CAP NONE"
*DIVIDER /
*DELIMITER :
*BUS_DELIMITER []
*T_UNIT 1 NS
*C_UNIT 1 PF
*R_UNIT 1 OHM
*L_UNIT 1 HENRY

*NAME_MAP
*1 io_in[0]
*2 io_in[10]
*3 io_in[11]
*4 io_in[12]
*5 io_in[13]
*6 io_in[14]
*7 io_in[15]
*8 io_in[16]
*9 io_in[17]
*10 io_in[18]
*11 io_in[19]
*12 io_in[1]
*13 io_in[20]
*14 io_in[21]
*15 io_in[22]
*16 io_in[23]
*17 io_in[24]
*18 io_in[25]
*19 io_in[26]
*20 io_in[27]
*21 io_in[28]
*22 io_in[29]
*23 io_in[2]
*24 io_in[30]
*25 io_in[31]
*26 io_in[32]
*27 io_in[33]
*28 io_in[34]
*29 io_in[35]
*30 io_in[36]
*31 io_in[37]
*32 io_in[3]
*33 io_in[4]
*34 io_in[5]
*35 io_in[6]
*36 io_in[7]
*37 io_in[8]
*38 io_in[9]
*39 io_oeb[0]
*40 io_oeb[10]
*41 io_oeb[11]
*42 io_oeb[12]
*43 io_oeb[13]
*44 io_oeb[14]
*45 io_oeb[15]
*46 io_oeb[16]
*47 io_oeb[17]
*48 io_oeb[18]
*49 io_oeb[19]
*50 io_oeb[1]
*51 io_oeb[20]
*52 io_oeb[21]
*53 io_oeb[22]
*54 io_oeb[23]
*55 io_oeb[24]
*56 io_oeb[25]
*57 io_oeb[26]
*58 io_oeb[27]
*59 io_oeb[28]
*60 io_oeb[29]
*61 io_oeb[2]
*62 io_oeb[30]
*63 io_oeb[31]
*64 io_oeb[32]
*65 io_oeb[33]
*66 io_oeb[34]
*67 io_oeb[35]
*68 io_oeb[36]
*69 io_oeb[37]
*70 io_oeb[3]
*71 io_oeb[4]
*72 io_oeb[5]
*73 io_oeb[6]
*74 io_oeb[7]
*75 io_oeb[8]
*76 io_oeb[9]
*77 io_out[0]
*78 io_out[10]
*79 io_out[11]
*80 io_out[12]
*81 io_out[13]
*82 io_out[14]
*83 io_out[15]
*84 io_out[16]
*85 io_out[17]
*86 io_out[18]
*87 io_out[19]
*88 io_out[1]
*89 io_out[20]
*90 io_out[21]
*91 io_out[22]
*92 io_out[23]
*93 io_out[24]
*94 io_out[25]
*95 io_out[26]
*96 io_out[27]
*97 io_out[28]
*98 io_out[29]
*99 io_out[2]
*100 io_out[30]
*101 io_out[31]
*102 io_out[32]
*103 io_out[33]
*104 io_out[34]
*105 io_out[35]
*106 io_out[36]
*107 io_out[37]
*108 io_out[3]
*109 io_out[4]
*110 io_out[5]
*111 io_out[6]
*112 io_out[7]
*113 io_out[8]
*114 io_out[9]
*115 la_data_in[0]
*116 la_data_in[10]
*117 la_data_in[11]
*118 la_data_in[12]
*119 la_data_in[13]
*120 la_data_in[14]
*121 la_data_in[15]
*122 la_data_in[16]
*123 la_data_in[17]
*124 la_data_in[18]
*125 la_data_in[19]
*126 la_data_in[1]
*127 la_data_in[20]
*128 la_data_in[21]
*129 la_data_in[22]
*130 la_data_in[23]
*131 la_data_in[24]
*132 la_data_in[25]
*133 la_data_in[26]
*134 la_data_in[27]
*135 la_data_in[28]
*136 la_data_in[29]
*137 la_data_in[2]
*138 la_data_in[30]
*139 la_data_in[31]
*140 la_data_in[32]
*141 la_data_in[33]
*142 la_data_in[34]
*143 la_data_in[35]
*144 la_data_in[36]
*145 la_data_in[37]
*146 la_data_in[38]
*147 la_data_in[39]
*148 la_data_in[3]
*149 la_data_in[40]
*150 la_data_in[41]
*151 la_data_in[42]
*152 la_data_in[43]
*153 la_data_in[44]
*154 la_data_in[45]
*155 la_data_in[46]
*156 la_data_in[47]
*157 la_data_in[48]
*158 la_data_in[49]
*159 la_data_in[4]
*160 la_data_in[50]
*161 la_data_in[51]
*162 la_data_in[52]
*163 la_data_in[53]
*164 la_data_in[54]
*165 la_data_in[55]
*166 la_data_in[56]
*167 la_data_in[57]
*168 la_data_in[58]
*169 la_data_in[59]
*170 la_data_in[5]
*171 la_data_in[60]
*172 la_data_in[61]
*173 la_data_in[62]
*174 la_data_in[63]
*175 la_data_in[6]
*176 la_data_in[7]
*177 la_data_in[8]
*178 la_data_in[9]
*179 la_data_out[0]
*180 la_data_out[10]
*181 la_data_out[11]
*182 la_data_out[12]
*183 la_data_out[13]
*184 la_data_out[14]
*185 la_data_out[15]
*186 la_data_out[16]
*187 la_data_out[17]
*188 la_data_out[18]
*189 la_data_out[19]
*190 la_data_out[1]
*191 la_data_out[20]
*192 la_data_out[21]
*193 la_data_out[22]
*194 la_data_out[23]
*195 la_data_out[24]
*196 la_data_out[25]
*197 la_data_out[26]
*198 la_data_out[27]
*199 la_data_out[28]
*200 la_data_out[29]
*201 la_data_out[2]
*202 la_data_out[30]
*203 la_data_out[31]
*204 la_data_out[32]
*205 la_data_out[33]
*206 la_data_out[34]
*207 la_data_out[35]
*208 la_data_out[36]
*209 la_data_out[37]
*210 la_data_out[38]
*211 la_data_out[39]
*212 la_data_out[3]
*213 la_data_out[40]
*214 la_data_out[41]
*215 la_data_out[42]
*216 la_data_out[43]
*217 la_data_out[44]
*218 la_data_out[45]
*219 la_data_out[46]
*220 la_data_out[47]
*221 la_data_out[48]
*222 la_data_out[49]
*223 la_data_out[4]
*224 la_data_out[50]
*225 la_data_out[51]
*226 la_data_out[52]
*227 la_data_out[53]
*228 la_data_out[54]
*229 la_data_out[55]
*230 la_data_out[56]
*231 la_data_out[57]
*232 la_data_out[58]
*233 la_data_out[59]
*234 la_data_out[5]
*235 la_data_out[60]
*236 la_data_out[61]
*237 la_data_out[62]
*238 la_data_out[63]
*239 la_data_out[6]
*240 la_data_out[7]
*241 la_data_out[8]
*242 la_data_out[9]
*243 la_oenb[0]
*244 la_oenb[10]
*245 la_oenb[11]
*246 la_oenb[12]
*247 la_oenb[13]
*248 la_oenb[14]
*249 la_oenb[15]
*250 la_oenb[16]
*251 la_oenb[17]
*252 la_oenb[18]
*253 la_oenb[19]
*254 la_oenb[1]
*255 la_oenb[20]
*256 la_oenb[21]
*257 la_oenb[22]
*258 la_oenb[23]
*259 la_oenb[24]
*260 la_oenb[25]
*261 la_oenb[26]
*262 la_oenb[27]
*263 la_oenb[28]
*264 la_oenb[29]
*265 la_oenb[2]
*266 la_oenb[30]
*267 la_oenb[31]
*268 la_oenb[32]
*269 la_oenb[33]
*270 la_oenb[34]
*271 la_oenb[35]
*272 la_oenb[36]
*273 la_oenb[37]
*274 la_oenb[38]
*275 la_oenb[39]
*276 la_oenb[3]
*277 la_oenb[40]
*278 la_oenb[41]
*279 la_oenb[42]
*280 la_oenb[43]
*281 la_oenb[44]
*282 la_oenb[45]
*283 la_oenb[46]
*284 la_oenb[47]
*285 la_oenb[48]
*286 la_oenb[49]
*287 la_oenb[4]
*288 la_oenb[50]
*289 la_oenb[51]
*290 la_oenb[52]
*291 la_oenb[53]
*292 la_oenb[54]
*293 la_oenb[55]
*294 la_oenb[56]
*295 la_oenb[57]
*296 la_oenb[58]
*297 la_oenb[59]
*298 la_oenb[5]
*299 la_oenb[60]
*300 la_oenb[61]
*301 la_oenb[62]
*302 la_oenb[63]
*303 la_oenb[6]
*304 la_oenb[7]
*305 la_oenb[8]
*306 la_oenb[9]
*307 user_clock2
*308 user_irq[0]
*309 user_irq[1]
*310 user_irq[2]
*313 wb_clk_i
*314 wb_rst_i
*315 wbs_ack_o
*316 wbs_adr_i[0]
*317 wbs_adr_i[10]
*318 wbs_adr_i[11]
*319 wbs_adr_i[12]
*320 wbs_adr_i[13]
*321 wbs_adr_i[14]
*322 wbs_adr_i[15]
*323 wbs_adr_i[16]
*324 wbs_adr_i[17]
*325 wbs_adr_i[18]
*326 wbs_adr_i[19]
*327 wbs_adr_i[1]
*328 wbs_adr_i[20]
*329 wbs_adr_i[21]
*330 wbs_adr_i[22]
*331 wbs_adr_i[23]
*332 wbs_adr_i[24]
*333 wbs_adr_i[25]
*334 wbs_adr_i[26]
*335 wbs_adr_i[27]
*336 wbs_adr_i[28]
*337 wbs_adr_i[29]
*338 wbs_adr_i[2]
*339 wbs_adr_i[30]
*340 wbs_adr_i[31]
*341 wbs_adr_i[3]
*342 wbs_adr_i[4]
*343 wbs_adr_i[5]
*344 wbs_adr_i[6]
*345 wbs_adr_i[7]
*346 wbs_adr_i[8]
*347 wbs_adr_i[9]
*348 wbs_cyc_i
*349 wbs_dat_i[0]
*350 wbs_dat_i[10]
*351 wbs_dat_i[11]
*352 wbs_dat_i[12]
*353 wbs_dat_i[13]
*354 wbs_dat_i[14]
*355 wbs_dat_i[15]
*356 wbs_dat_i[16]
*357 wbs_dat_i[17]
*358 wbs_dat_i[18]
*359 wbs_dat_i[19]
*360 wbs_dat_i[1]
*361 wbs_dat_i[20]
*362 wbs_dat_i[21]
*363 wbs_dat_i[22]
*364 wbs_dat_i[23]
*365 wbs_dat_i[24]
*366 wbs_dat_i[25]
*367 wbs_dat_i[26]
*368 wbs_dat_i[27]
*369 wbs_dat_i[28]
*370 wbs_dat_i[29]
*371 wbs_dat_i[2]
*372 wbs_dat_i[30]
*373 wbs_dat_i[31]
*374 wbs_dat_i[3]
*375 wbs_dat_i[4]
*376 wbs_dat_i[5]
*377 wbs_dat_i[6]
*378 wbs_dat_i[7]
*379 wbs_dat_i[8]
*380 wbs_dat_i[9]
*381 wbs_dat_o[0]
*382 wbs_dat_o[10]
*383 wbs_dat_o[11]
*384 wbs_dat_o[12]
*385 wbs_dat_o[13]
*386 wbs_dat_o[14]
*387 wbs_dat_o[15]
*388 wbs_dat_o[16]
*389 wbs_dat_o[17]
*390 wbs_dat_o[18]
*391 wbs_dat_o[19]
*392 wbs_dat_o[1]
*393 wbs_dat_o[20]
*394 wbs_dat_o[21]
*395 wbs_dat_o[22]
*396 wbs_dat_o[23]
*397 wbs_dat_o[24]
*398 wbs_dat_o[25]
*399 wbs_dat_o[26]
*400 wbs_dat_o[27]
*401 wbs_dat_o[28]
*402 wbs_dat_o[29]
*403 wbs_dat_o[2]
*404 wbs_dat_o[30]
*405 wbs_dat_o[31]
*406 wbs_dat_o[3]
*407 wbs_dat_o[4]
*408 wbs_dat_o[5]
*409 wbs_dat_o[6]
*410 wbs_dat_o[7]
*411 wbs_dat_o[8]
*412 wbs_dat_o[9]
*413 wbs_sel_i[0]
*414 wbs_sel_i[1]
*415 wbs_sel_i[2]
*416 wbs_sel_i[3]
*417 wbs_stb_i
*418 wbs_we_i
*419 mprj

*PORTS
io_in[0] I
io_in[10] I
io_in[11] I
io_in[12] I
io_in[13] I
io_in[14] I
io_in[15] I
io_in[16] I
io_in[17] I
io_in[18] I
io_in[19] I
io_in[1] I
io_in[20] I
io_in[21] I
io_in[22] I
io_in[23] I
io_in[24] I
io_in[25] I
io_in[26] I
io_in[27] I
io_in[28] I
io_in[29] I
io_in[2] I
io_in[30] I
io_in[31] I
io_in[32] I
io_in[33] I
io_in[34] I
io_in[35] I
io_in[36] I
io_in[37] I
io_in[3] I
io_in[4] I
io_in[5] I
io_in[6] I
io_in[7] I
io_in[8] I
io_in[9] I
io_oeb[0] O
io_oeb[10] O
io_oeb[11] O
io_oeb[12] O
io_oeb[13] O
io_oeb[14] O
io_oeb[15] O
io_oeb[16] O
io_oeb[17] O
io_oeb[18] O
io_oeb[19] O
io_oeb[1] O
io_oeb[20] O
io_oeb[21] O
io_oeb[22] O
io_oeb[23] O
io_oeb[24] O
io_oeb[25] O
io_oeb[26] O
io_oeb[27] O
io_oeb[28] O
io_oeb[29] O
io_oeb[2] O
io_oeb[30] O
io_oeb[31] O
io_oeb[32] O
io_oeb[33] O
io_oeb[34] O
io_oeb[35] O
io_oeb[36] O
io_oeb[37] O
io_oeb[3] O
io_oeb[4] O
io_oeb[5] O
io_oeb[6] O
io_oeb[7] O
io_oeb[8] O
io_oeb[9] O
io_out[0] O
io_out[10] O
io_out[11] O
io_out[12] O
io_out[13] O
io_out[14] O
io_out[15] O
io_out[16] O
io_out[17] O
io_out[18] O
io_out[19] O
io_out[1] O
io_out[20] O
io_out[21] O
io_out[22] O
io_out[23] O
io_out[24] O
io_out[25] O
io_out[26] O
io_out[27] O
io_out[28] O
io_out[29] O
io_out[2] O
io_out[30] O
io_out[31] O
io_out[32] O
io_out[33] O
io_out[34] O
io_out[35] O
io_out[36] O
io_out[37] O
io_out[3] O
io_out[4] O
io_out[5] O
io_out[6] O
io_out[7] O
io_out[8] O
io_out[9] O
la_data_in[0] I
la_data_in[10] I
la_data_in[11] I
la_data_in[12] I
la_data_in[13] I
la_data_in[14] I
la_data_in[15] I
la_data_in[16] I
la_data_in[17] I
la_data_in[18] I
la_data_in[19] I
la_data_in[1] I
la_data_in[20] I
la_data_in[21] I
la_data_in[22] I
la_data_in[23] I
la_data_in[24] I
la_data_in[25] I
la_data_in[26] I
la_data_in[27] I
la_data_in[28] I
la_data_in[29] I
la_data_in[2] I
la_data_in[30] I
la_data_in[31] I
la_data_in[32] I
la_data_in[33] I
la_data_in[34] I
la_data_in[35] I
la_data_in[36] I
la_data_in[37] I
la_data_in[38] I
la_data_in[39] I
la_data_in[3] I
la_data_in[40] I
la_data_in[41] I
la_data_in[42] I
la_data_in[43] I
la_data_in[44] I
la_data_in[45] I
la_data_in[46] I
la_data_in[47] I
la_data_in[48] I
la_data_in[49] I
la_data_in[4] I
la_data_in[50] I
la_data_in[51] I
la_data_in[52] I
la_data_in[53] I
la_data_in[54] I
la_data_in[55] I
la_data_in[56] I
la_data_in[57] I
la_data_in[58] I
la_data_in[59] I
la_data_in[5] I
la_data_in[60] I
la_data_in[61] I
la_data_in[62] I
la_data_in[63] I
la_data_in[6] I
la_data_in[7] I
la_data_in[8] I
la_data_in[9] I
la_data_out[0] O
la_data_out[10] O
la_data_out[11] O
la_data_out[12] O
la_data_out[13] O
la_data_out[14] O
la_data_out[15] O
la_data_out[16] O
la_data_out[17] O
la_data_out[18] O
la_data_out[19] O
la_data_out[1] O
la_data_out[20] O
la_data_out[21] O
la_data_out[22] O
la_data_out[23] O
la_data_out[24] O
la_data_out[25] O
la_data_out[26] O
la_data_out[27] O
la_data_out[28] O
la_data_out[29] O
la_data_out[2] O
la_data_out[30] O
la_data_out[31] O
la_data_out[32] O
la_data_out[33] O
la_data_out[34] O
la_data_out[35] O
la_data_out[36] O
la_data_out[37] O
la_data_out[38] O
la_data_out[39] O
la_data_out[3] O
la_data_out[40] O
la_data_out[41] O
la_data_out[42] O
la_data_out[43] O
la_data_out[44] O
la_data_out[45] O
la_data_out[46] O
la_data_out[47] O
la_data_out[48] O
la_data_out[49] O
la_data_out[4] O
la_data_out[50] O
la_data_out[51] O
la_data_out[52] O
la_data_out[53] O
la_data_out[54] O
la_data_out[55] O
la_data_out[56] O
la_data_out[57] O
la_data_out[58] O
la_data_out[59] O
la_data_out[5] O
la_data_out[60] O
la_data_out[61] O
la_data_out[62] O
la_data_out[63] O
la_data_out[6] O
la_data_out[7] O
la_data_out[8] O
la_data_out[9] O
la_oenb[0] I
la_oenb[10] I
la_oenb[11] I
la_oenb[12] I
la_oenb[13] I
la_oenb[14] I
la_oenb[15] I
la_oenb[16] I
la_oenb[17] I
la_oenb[18] I
la_oenb[19] I
la_oenb[1] I
la_oenb[20] I
la_oenb[21] I
la_oenb[22] I
la_oenb[23] I
la_oenb[24] I
la_oenb[25] I
la_oenb[26] I
la_oenb[27] I
la_oenb[28] I
la_oenb[29] I
la_oenb[2] I
la_oenb[30] I
la_oenb[31] I
la_oenb[32] I
la_oenb[33] I
la_oenb[34] I
la_oenb[35] I
la_oenb[36] I
la_oenb[37] I
la_oenb[38] I
la_oenb[39] I
la_oenb[3] I
la_oenb[40] I
la_oenb[41] I
la_oenb[42] I
la_oenb[43] I
la_oenb[44] I
la_oenb[45] I
la_oenb[46] I
la_oenb[47] I
la_oenb[48] I
la_oenb[49] I
la_oenb[4] I
la_oenb[50] I
la_oenb[51] I
la_oenb[52] I
la_oenb[53] I
la_oenb[54] I
la_oenb[55] I
la_oenb[56] I
la_oenb[57] I
la_oenb[58] I
la_oenb[59] I
la_oenb[5] I
la_oenb[60] I
la_oenb[61] I
la_oenb[62] I
la_oenb[63] I
la_oenb[6] I
la_oenb[7] I
la_oenb[8] I
la_oenb[9] I
user_clock2 I
user_irq[0] O
user_irq[1] O
user_irq[2] O
wb_clk_i I
wb_rst_i I
wbs_ack_o O
wbs_adr_i[0] I
wbs_adr_i[10] I
wbs_adr_i[11] I
wbs_adr_i[12] I
wbs_adr_i[13] I
wbs_adr_i[14] I
wbs_adr_i[15] I
wbs_adr_i[16] I
wbs_adr_i[17] I
wbs_adr_i[18] I
wbs_adr_i[19] I
wbs_adr_i[1] I
wbs_adr_i[20] I
wbs_adr_i[21] I
wbs_adr_i[22] I
wbs_adr_i[23] I
wbs_adr_i[24] I
wbs_adr_i[25] I
wbs_adr_i[26] I
wbs_adr_i[27] I
wbs_adr_i[28] I
wbs_adr_i[29] I
wbs_adr_i[2] I
wbs_adr_i[30] I
wbs_adr_i[31] I
wbs_adr_i[3] I
wbs_adr_i[4] I
wbs_adr_i[5] I
wbs_adr_i[6] I
wbs_adr_i[7] I
wbs_adr_i[8] I
wbs_adr_i[9] I
wbs_cyc_i I
wbs_dat_i[0] I
wbs_dat_i[10] I
wbs_dat_i[11] I
wbs_dat_i[12] I
wbs_dat_i[13] I
wbs_dat_i[14] I
wbs_dat_i[15] I
wbs_dat_i[16] I
wbs_dat_i[17] I
wbs_dat_i[18] I
wbs_dat_i[19] I
wbs_dat_i[1] I
wbs_dat_i[20] I
wbs_dat_i[21] I
wbs_dat_i[22] I
wbs_dat_i[23] I
wbs_dat_i[24] I
wbs_dat_i[25] I
wbs_dat_i[26] I
wbs_dat_i[27] I
wbs_dat_i[28] I
wbs_dat_i[29] I
wbs_dat_i[2] I
wbs_dat_i[30] I
wbs_dat_i[31] I
wbs_dat_i[3] I
wbs_dat_i[4] I
wbs_dat_i[5] I
wbs_dat_i[6] I
wbs_dat_i[7] I
wbs_dat_i[8] I
wbs_dat_i[9] I
wbs_dat_o[0] O
wbs_dat_o[10] O
wbs_dat_o[11] O
wbs_dat_o[12] O
wbs_dat_o[13] O
wbs_dat_o[14] O
wbs_dat_o[15] O
wbs_dat_o[16] O
wbs_dat_o[17] O
wbs_dat_o[18] O
wbs_dat_o[19] O
wbs_dat_o[1] O
wbs_dat_o[20] O
wbs_dat_o[21] O
wbs_dat_o[22] O
wbs_dat_o[23] O
wbs_dat_o[24] O
wbs_dat_o[25] O
wbs_dat_o[26] O
wbs_dat_o[27] O
wbs_dat_o[28] O
wbs_dat_o[29] O
wbs_dat_o[2] O
wbs_dat_o[30] O
wbs_dat_o[31] O
wbs_dat_o[3] O
wbs_dat_o[4] O
wbs_dat_o[5] O
wbs_dat_o[6] O
wbs_dat_o[7] O
wbs_dat_o[8] O
wbs_dat_o[9] O
wbs_sel_i[0] I
wbs_sel_i[1] I
wbs_sel_i[2] I
wbs_sel_i[3] I
wbs_stb_i I
wbs_we_i I

*D_NET *1 0.0333524
*CONN
*P io_in[0] I
*I *419:io_oeb[0] O *D user_proj_example
*I *419:io_in[0] I *D user_proj_example
*I *419:io_out[0] O *D user_proj_example
*CAP
1 io_in[0] 0.00624
2 *419:io_oeb[0] 0.00461539
3 *419:io_in[0] 0.000462035
4 *419:io_out[0] 0.000462035
5 *1:13 0.00695846
6 *1:9 0.00535878
7 *1:7 0.00925572
*RES
1 *419:io_out[0] *1:7 7.122 
2 *1:7 *1:9 19.836 
3 *1:9 *1:13 7.92 
4 *1:13 io_in[0] 44.574 
5 *1:9 *419:io_in[0] 7.122 
6 *1:7 *419:io_oeb[0] 26.958 
*END

*D_NET *2 0.350339
*CONN
*P io_in[10] I
*I *419:io_oeb[10] O *D user_proj_example
*I *419:io_out[10] O *D user_proj_example
*CAP
1 io_in[10] 0.000964261
2 *419:io_oeb[10] 0.00407513
3 *419:io_out[10] 0.00424314
4 *2:27 0.00643313
5 *2:25 0.00546887
6 *2:23 0.0966378
7 *2:21 0.0968058
8 *2:27 io_in[6] 0.0098734
9 *2:27 *3:27 0.0846577
10 *2:27 *36:27 0.00366028
11 *2:27 *38:27 0.0375194
*RES
1 *419:io_out[10] *419:io_oeb[10] 38.868 
2 *419:io_out[10] *2:21 10.045 
3 *2:21 *2:23 334.905 
4 *2:23 *2:25 4.5 
5 *2:25 *2:27 203.243 
6 *2:27 io_in[10] 10.922 
*END

*D_NET *3 0.445144
*CONN
*P io_in[11] I
*I *419:io_oeb[11] O *D user_proj_example
*I *419:io_out[11] O *D user_proj_example
*CAP
1 io_in[11] 0.000984899
2 *419:io_oeb[11] 0.00416279
3 *419:io_out[11] 0.00432747
4 *3:27 0.00708519
5 *3:25 0.00610029
6 *3:23 0.0966002
7 *3:21 0.0967648
8 *3:27 io_in[5] 0.0100108
9 *3:27 io_in[6] 0.00252504
10 *3:27 *4:25 0.131925
11 *2:27 *3:27 0.0846577
*RES
1 *419:io_out[11] *419:io_oeb[11] 38.868 
2 *419:io_out[11] *3:21 10.0233 
3 *3:21 *3:23 334.841 
4 *3:23 *3:25 4.5 
5 *3:25 *3:27 316.657 
6 *3:27 io_in[11] 11.074 
*END

*D_NET *4 0.847719
*CONN
*P io_in[12] I
*I *419:io_oeb[12] O *D user_proj_example
*I *419:io_out[12] O *D user_proj_example
*CAP
1 io_in[12] 0.00100554
2 *419:io_oeb[12] 0.00415895
3 *419:io_out[12] 8.10105e-05
4 *4:25 0.00948875
5 *4:23 0.00848321
6 *4:21 0.251999
7 *4:19 0.251999
8 *4:6 0.00423996
9 *4:21 io_in[4] 0.00378786
10 *4:25 io_in[5] 0.00120342
11 *4:25 *5:27 0.179348
12 *3:27 *4:25 0.131925
*RES
1 *419:io_out[12] *4:6 4.899 
2 *4:6 *419:io_oeb[12] 34.957 
3 *4:6 *4:19 4.5 
4 *4:19 *4:21 334.777 
5 *4:21 *4:23 4.5 
6 *4:23 *4:25 430.559 
7 *4:25 io_in[12] 11.226 
*END

*D_NET *5 0.632876
*CONN
*P io_in[13] I
*I *419:io_oeb[13] O *D user_proj_example
*I *419:io_out[13] O *D user_proj_example
*CAP
1 io_in[13] 0.00102617
2 *419:io_oeb[13] 0.00413123
3 *419:io_out[13] 0.0042882
4 *5:27 0.00873669
5 *5:25 0.00771052
6 *5:23 0.0965425
7 *5:21 0.0966995
8 *5:27 io_in[3] 0.00791864
9 *5:27 *6:27 0.226475
10 *4:25 *5:27 0.179348
*RES
1 *419:io_out[13] *419:io_oeb[13] 38.868 
2 *419:io_out[13] *5:21 9.97986 
3 *5:21 *5:23 334.714 
4 *5:23 *5:25 4.5 
5 *5:25 *5:27 543.484 
6 *5:27 io_in[13] 11.378 
*END

*D_NET *6 0.542101
*CONN
*P io_in[14] I
*I *419:io_oeb[14] O *D user_proj_example
*I *419:io_out[14] O *D user_proj_example
*CAP
1 io_in[14] 0.0012482
2 *419:io_oeb[14] 0.00414526
3 *419:io_out[14] 0.00429815
4 *6:27 0.0541976
5 *6:25 0.0529494
6 *6:23 0.0964783
7 *6:21 0.0966312
8 *6:27 io_in[2] 0.0056774
9 *5:27 *6:27 0.226475
*RES
1 *419:io_out[14] *419:io_oeb[14] 38.868 
2 *419:io_out[14] *6:21 9.95814 
3 *6:21 *6:23 334.65 
4 *6:23 *6:25 4.5 
5 *6:25 *6:27 656.898 
6 *6:27 io_in[14] 11.53 
*END

*D_NET *7 0.410279
*CONN
*P io_in[15] I
*I *419:io_oeb[15] O *D user_proj_example
*I *419:io_out[15] O *D user_proj_example
*CAP
1 io_in[15] 0.000858356
2 *419:io_oeb[15] 0.00435212
3 *419:io_out[15] 0.00450365
4 *7:33 0.105218
5 *7:31 0.104359
6 *7:29 0.0954182
7 *7:27 0.0955697
*RES
1 *419:io_out[15] *419:io_oeb[15] 38.944 
2 *419:io_out[15] *7:27 9.93643 
3 *7:27 *7:29 331.341 
4 *7:29 *7:31 4.5 
5 *7:31 *7:33 756.024 
6 *7:33 io_in[15] 14.966 
*END

*D_NET *12 0.0344793
*CONN
*P io_in[1] I
*I *419:io_oeb[1] O *D user_proj_example
*I *419:io_in[1] I *D user_proj_example
*I *419:io_out[1] O *D user_proj_example
*CAP
1 io_in[1] 0.00213052
2 *419:io_oeb[1] 0.00468515
3 *419:io_in[1] 0.000462035
4 *419:io_out[1] 0.000462035
5 *12:25 0.00744131
6 *12:11 0.00996194
7 *12:7 0.0093363
*RES
1 *419:io_out[1] *12:7 7.122 
2 *12:7 *12:11 24.336 
3 *12:11 *419:io_in[1] 2.622 
4 *12:11 *12:25 42.728 
5 *12:25 io_in[1] 19.662 
6 *12:7 *419:io_oeb[1] 26.958 
*END

*D_NET *23 0.0397861
*CONN
*P io_in[2] I
*I *419:io_oeb[2] O *D user_proj_example
*I *419:io_in[2] I *D user_proj_example
*I *419:io_out[2] O *D user_proj_example
*CAP
1 io_in[2] 0.00198065
2 *419:io_oeb[2] 0.00464863
3 *419:io_in[2] 0.000462035
4 *419:io_out[2] 0.000462035
5 *23:25 0.00732576
6 *23:11 0.00996302
7 *23:7 0.00926655
8 *6:27 io_in[2] 0.0056774
*RES
1 *419:io_out[2] *23:7 7.122 
2 *23:7 *23:11 24.336 
3 *23:11 *419:io_in[2] 2.622 
4 *23:11 *23:25 42.88 
5 *23:25 io_in[2] 24.982 
6 *23:7 *419:io_oeb[2] 26.958 
*END

*D_NET *32 0.0430629
*CONN
*P io_in[3] I
*I *419:io_oeb[3] O *D user_proj_example
*I *419:io_in[3] I *D user_proj_example
*I *419:io_out[3] O *D user_proj_example
*CAP
1 io_in[3] 0.00237897
2 *419:io_oeb[3] 0.00460709
3 *419:io_in[3] 0.000534265
4 *419:io_out[3] 0.000462035
5 *32:23 0.0076853
6 *32:11 0.010124
7 *32:7 0.00935257
8 *419:io_oeb[3] *33:25 0
9 *5:27 io_in[3] 0.00791864
*RES
1 *419:io_out[3] *32:7 7.122 
2 *32:7 *32:11 24.792 
3 *32:11 *419:io_in[3] 3.154 
4 *32:11 *32:23 42.424 
5 *32:23 io_in[3] 30.302 
6 *32:7 *419:io_oeb[3] 26.958 
*END

*D_NET *33 0.0431708
*CONN
*P io_in[4] I
*I *419:io_oeb[4] O *D user_proj_example
*I *419:io_in[4] I *D user_proj_example
*I *419:io_out[4] O *D user_proj_example
*CAP
1 io_in[4] 0.00615025
2 *419:io_oeb[4] 0.00464863
3 *419:io_in[4] 0.000510467
4 *419:io_out[4] 0.000462035
5 *33:25 0.00991058
6 *33:11 0.00843055
7 *33:7 0.00927041
8 *419:io_oeb[3] *33:25 0
9 *4:21 io_in[4] 0.00378786
*RES
1 *419:io_out[4] *33:7 7.122 
2 *33:7 *33:11 24.336 
3 *33:11 *419:io_in[4] 2.622 
4 *33:11 *33:25 35.448 
5 *33:25 io_in[4] 43.51 
6 *33:7 *419:io_oeb[4] 26.958 
*END

*D_NET *34 0.0478604
*CONN
*P io_in[5] I
*I *419:io_oeb[5] O *D user_proj_example
*I *419:io_in[5] I *D user_proj_example
*I *419:io_out[5] O *D user_proj_example
*CAP
1 io_in[5] 0.00315477
2 *419:io_oeb[5] 0.00464863
3 *419:io_in[5] 0.000462035
4 *419:io_out[5] 0.000462035
5 *34:25 0.00860283
6 *34:11 0.0100577
7 *34:7 0.00925824
8 *3:27 io_in[5] 0.0100108
9 *4:25 io_in[5] 0.00120342
*RES
1 *419:io_out[5] *34:7 7.122 
2 *34:7 *34:11 24.336 
3 *34:11 *419:io_in[5] 2.622 
4 *34:11 *34:25 43.336 
5 *34:25 io_in[5] 40.942 
6 *34:7 *419:io_oeb[5] 26.958 
*END

*D_NET *35 0.0497072
*CONN
*P io_in[6] I
*I *419:io_oeb[6] O *D user_proj_example
*I *419:io_in[6] I *D user_proj_example
*I *419:io_out[6] O *D user_proj_example
*CAP
1 io_in[6] 0.0034102
2 *419:io_oeb[6] 0.00464863
3 *419:io_in[6] 0.000462035
4 *419:io_out[6] 0.000462035
5 *35:25 0.00889258
6 *35:11 0.0101335
7 *35:7 0.00929979
8 *2:27 io_in[6] 0.0098734
9 *3:27 io_in[6] 0.00252504
*RES
1 *419:io_out[6] *35:7 7.122 
2 *35:7 *35:11 24.336 
3 *35:11 *419:io_in[6] 2.622 
4 *35:11 *35:25 43.488 
5 *35:25 io_in[6] 46.262 
6 *35:7 *419:io_oeb[6] 26.958 
*END

*D_NET *36 0.0518231
*CONN
*P io_in[7] I
*I *419:io_oeb[7] O *D user_proj_example
*I *419:io_in[7] I *D user_proj_example
*I *419:io_out[7] O *D user_proj_example
*CAP
1 io_in[7] 0.000922987
2 *419:io_oeb[7] 0.00460709
3 *419:io_in[7] 0.000534265
4 *419:io_out[7] 0.000462035
5 *36:27 0.00382313
6 *36:23 0.00834375
7 *36:11 0.0102696
8 *36:7 0.00936087
9 *36:27 *38:27 0.00983904
10 *2:27 *36:27 0.00366028
*RES
1 *419:io_out[7] *36:7 7.122 
2 *36:7 *36:11 24.792 
3 *36:11 *419:io_in[7] 3.154 
4 *36:11 *36:23 43.032 
5 *36:23 *36:27 45.464 
6 *36:27 io_in[7] 6.118 
7 *36:7 *419:io_oeb[7] 26.958 
*END

*D_NET *37 0.203976
*CONN
*P io_in[8] I
*I *419:io_oeb[8] O *D user_proj_example
*I *419:io_out[8] O *D user_proj_example
*CAP
1 io_in[8] 0.000966815
2 *419:io_oeb[8] 0.000983056
3 *419:io_out[8] 0.00312813
4 *37:17 0.0978048
5 *37:15 0.0968379
6 *37:6 0.00411119
7 io_in[8] *38:27 0.000143824
*RES
1 *419:io_out[8] *37:6 27.0421 
2 *37:6 *419:io_oeb[8] 11.9019 
3 *37:6 *37:15 4.5 
4 *37:15 *37:17 335.414 
5 *37:17 io_in[8] 15.6799 
*END

*D_NET *38 0.473519
*CONN
*P io_in[9] I
*I *419:io_oeb[9] O *D user_proj_example
*I *419:io_out[9] O *D user_proj_example
*CAP
1 io_in[9] 0.00111952
2 *419:io_oeb[9] 0.00407458
3 *419:io_out[9] 0.00420298
4 *38:27 0.00581054
5 *38:25 0.00469102
6 *38:23 0.202995
7 *38:21 0.203123
8 io_in[8] *38:27 0.000143824
9 *2:27 *38:27 0.0375194
10 *36:27 *38:27 0.00983904
*RES
1 *419:io_out[9] *419:io_oeb[9] 38.868 
2 *419:io_out[9] *38:21 9.84957 
3 *38:21 *38:23 334.968 
4 *38:23 *38:25 4.5 
5 *38:25 *38:27 90.0736 
6 *38:27 io_in[9] 10.77 
*END

*D_NET *313 0.0973467
*CONN
*P wb_clk_i I
*I *419:wb_clk_i I *D user_proj_example
*CAP
1 wb_clk_i 0.000140838
2 *419:wb_clk_i 0.000366863
3 *313:13 0.0126367
4 *313:11 0.0124107
5 *313:13 *314:13 0.0717916
*RES
1 wb_clk_i *313:11 5.602 
2 *313:11 *313:13 174.42 
3 *313:13 *419:wb_clk_i 6.894 
*END

*D_NET *314 0.201481
*CONN
*P wb_rst_i I
*I *419:wb_rst_i I *D user_proj_example
*CAP
1 wb_rst_i 0.000118969
2 *419:wb_rst_i 0.000332172
3 *314:13 0.064726
4 *314:11 0.0645128
5 *313:13 *314:13 0.0717916
*RES
1 wb_rst_i *314:11 5.45 
2 *314:11 *314:13 552.444 
3 *314:13 *419:wb_rst_i 6.742 
*END
