*SPEF "ieee 1481-1999"
*DESIGN "user_project_wrapper"
*DATE "11:11:11 Fri 11 11, 1111"
*VENDOR "OpenRCX"
*PROGRAM "Parallel Extraction"
*VERSION "1.0"
*DESIGN_FLOW "NAME_SCOPE LOCAL" "PIN_CAP NONE"
*DIVIDER /
*DELIMITER :
*BUS_DELIMITER []
*T_UNIT 1 NS
*C_UNIT 1 PF
*R_UNIT 1 OHM
*L_UNIT 1 HENRY

*NAME_MAP
*1 io_in[0]
*2 io_in[10]
*3 io_in[11]
*4 io_in[12]
*5 io_in[13]
*6 io_in[14]
*7 io_in[15]
*8 io_in[16]
*9 io_in[17]
*10 io_in[18]
*11 io_in[19]
*12 io_in[1]
*13 io_in[20]
*14 io_in[21]
*15 io_in[22]
*16 io_in[23]
*17 io_in[24]
*18 io_in[25]
*19 io_in[26]
*20 io_in[27]
*21 io_in[28]
*22 io_in[29]
*23 io_in[2]
*24 io_in[30]
*25 io_in[31]
*26 io_in[32]
*27 io_in[33]
*28 io_in[34]
*29 io_in[35]
*30 io_in[36]
*31 io_in[37]
*32 io_in[3]
*33 io_in[4]
*34 io_in[5]
*35 io_in[6]
*36 io_in[7]
*37 io_in[8]
*38 io_in[9]
*39 io_oeb[0]
*40 io_oeb[10]
*41 io_oeb[11]
*42 io_oeb[12]
*43 io_oeb[13]
*44 io_oeb[14]
*45 io_oeb[15]
*46 io_oeb[16]
*47 io_oeb[17]
*48 io_oeb[18]
*49 io_oeb[19]
*50 io_oeb[1]
*51 io_oeb[20]
*52 io_oeb[21]
*53 io_oeb[22]
*54 io_oeb[23]
*55 io_oeb[24]
*56 io_oeb[25]
*57 io_oeb[26]
*58 io_oeb[27]
*59 io_oeb[28]
*60 io_oeb[29]
*61 io_oeb[2]
*62 io_oeb[30]
*63 io_oeb[31]
*64 io_oeb[32]
*65 io_oeb[33]
*66 io_oeb[34]
*67 io_oeb[35]
*68 io_oeb[36]
*69 io_oeb[37]
*70 io_oeb[3]
*71 io_oeb[4]
*72 io_oeb[5]
*73 io_oeb[6]
*74 io_oeb[7]
*75 io_oeb[8]
*76 io_oeb[9]
*77 io_out[0]
*78 io_out[10]
*79 io_out[11]
*80 io_out[12]
*81 io_out[13]
*82 io_out[14]
*83 io_out[15]
*84 io_out[16]
*85 io_out[17]
*86 io_out[18]
*87 io_out[19]
*88 io_out[1]
*89 io_out[20]
*90 io_out[21]
*91 io_out[22]
*92 io_out[23]
*93 io_out[24]
*94 io_out[25]
*95 io_out[26]
*96 io_out[27]
*97 io_out[28]
*98 io_out[29]
*99 io_out[2]
*100 io_out[30]
*101 io_out[31]
*102 io_out[32]
*103 io_out[33]
*104 io_out[34]
*105 io_out[35]
*106 io_out[36]
*107 io_out[37]
*108 io_out[3]
*109 io_out[4]
*110 io_out[5]
*111 io_out[6]
*112 io_out[7]
*113 io_out[8]
*114 io_out[9]
*115 la_data_in[0]
*116 la_data_in[10]
*117 la_data_in[11]
*118 la_data_in[12]
*119 la_data_in[13]
*120 la_data_in[14]
*121 la_data_in[15]
*122 la_data_in[16]
*123 la_data_in[17]
*124 la_data_in[18]
*125 la_data_in[19]
*126 la_data_in[1]
*127 la_data_in[20]
*128 la_data_in[21]
*129 la_data_in[22]
*130 la_data_in[23]
*131 la_data_in[24]
*132 la_data_in[25]
*133 la_data_in[26]
*134 la_data_in[27]
*135 la_data_in[28]
*136 la_data_in[29]
*137 la_data_in[2]
*138 la_data_in[30]
*139 la_data_in[31]
*140 la_data_in[32]
*141 la_data_in[33]
*142 la_data_in[34]
*143 la_data_in[35]
*144 la_data_in[36]
*145 la_data_in[37]
*146 la_data_in[38]
*147 la_data_in[39]
*148 la_data_in[3]
*149 la_data_in[40]
*150 la_data_in[41]
*151 la_data_in[42]
*152 la_data_in[43]
*153 la_data_in[44]
*154 la_data_in[45]
*155 la_data_in[46]
*156 la_data_in[47]
*157 la_data_in[48]
*158 la_data_in[49]
*159 la_data_in[4]
*160 la_data_in[50]
*161 la_data_in[51]
*162 la_data_in[52]
*163 la_data_in[53]
*164 la_data_in[54]
*165 la_data_in[55]
*166 la_data_in[56]
*167 la_data_in[57]
*168 la_data_in[58]
*169 la_data_in[59]
*170 la_data_in[5]
*171 la_data_in[60]
*172 la_data_in[61]
*173 la_data_in[62]
*174 la_data_in[63]
*175 la_data_in[6]
*176 la_data_in[7]
*177 la_data_in[8]
*178 la_data_in[9]
*179 la_data_out[0]
*180 la_data_out[10]
*181 la_data_out[11]
*182 la_data_out[12]
*183 la_data_out[13]
*184 la_data_out[14]
*185 la_data_out[15]
*186 la_data_out[16]
*187 la_data_out[17]
*188 la_data_out[18]
*189 la_data_out[19]
*190 la_data_out[1]
*191 la_data_out[20]
*192 la_data_out[21]
*193 la_data_out[22]
*194 la_data_out[23]
*195 la_data_out[24]
*196 la_data_out[25]
*197 la_data_out[26]
*198 la_data_out[27]
*199 la_data_out[28]
*200 la_data_out[29]
*201 la_data_out[2]
*202 la_data_out[30]
*203 la_data_out[31]
*204 la_data_out[32]
*205 la_data_out[33]
*206 la_data_out[34]
*207 la_data_out[35]
*208 la_data_out[36]
*209 la_data_out[37]
*210 la_data_out[38]
*211 la_data_out[39]
*212 la_data_out[3]
*213 la_data_out[40]
*214 la_data_out[41]
*215 la_data_out[42]
*216 la_data_out[43]
*217 la_data_out[44]
*218 la_data_out[45]
*219 la_data_out[46]
*220 la_data_out[47]
*221 la_data_out[48]
*222 la_data_out[49]
*223 la_data_out[4]
*224 la_data_out[50]
*225 la_data_out[51]
*226 la_data_out[52]
*227 la_data_out[53]
*228 la_data_out[54]
*229 la_data_out[55]
*230 la_data_out[56]
*231 la_data_out[57]
*232 la_data_out[58]
*233 la_data_out[59]
*234 la_data_out[5]
*235 la_data_out[60]
*236 la_data_out[61]
*237 la_data_out[62]
*238 la_data_out[63]
*239 la_data_out[6]
*240 la_data_out[7]
*241 la_data_out[8]
*242 la_data_out[9]
*243 la_oenb[0]
*244 la_oenb[10]
*245 la_oenb[11]
*246 la_oenb[12]
*247 la_oenb[13]
*248 la_oenb[14]
*249 la_oenb[15]
*250 la_oenb[16]
*251 la_oenb[17]
*252 la_oenb[18]
*253 la_oenb[19]
*254 la_oenb[1]
*255 la_oenb[20]
*256 la_oenb[21]
*257 la_oenb[22]
*258 la_oenb[23]
*259 la_oenb[24]
*260 la_oenb[25]
*261 la_oenb[26]
*262 la_oenb[27]
*263 la_oenb[28]
*264 la_oenb[29]
*265 la_oenb[2]
*266 la_oenb[30]
*267 la_oenb[31]
*268 la_oenb[32]
*269 la_oenb[33]
*270 la_oenb[34]
*271 la_oenb[35]
*272 la_oenb[36]
*273 la_oenb[37]
*274 la_oenb[38]
*275 la_oenb[39]
*276 la_oenb[3]
*277 la_oenb[40]
*278 la_oenb[41]
*279 la_oenb[42]
*280 la_oenb[43]
*281 la_oenb[44]
*282 la_oenb[45]
*283 la_oenb[46]
*284 la_oenb[47]
*285 la_oenb[48]
*286 la_oenb[49]
*287 la_oenb[4]
*288 la_oenb[50]
*289 la_oenb[51]
*290 la_oenb[52]
*291 la_oenb[53]
*292 la_oenb[54]
*293 la_oenb[55]
*294 la_oenb[56]
*295 la_oenb[57]
*296 la_oenb[58]
*297 la_oenb[59]
*298 la_oenb[5]
*299 la_oenb[60]
*300 la_oenb[61]
*301 la_oenb[62]
*302 la_oenb[63]
*303 la_oenb[6]
*304 la_oenb[7]
*305 la_oenb[8]
*306 la_oenb[9]
*307 user_clock2
*308 user_irq[0]
*309 user_irq[1]
*310 user_irq[2]
*313 wb_clk_i
*314 wb_rst_i
*315 wbs_ack_o
*316 wbs_adr_i[0]
*317 wbs_adr_i[10]
*318 wbs_adr_i[11]
*319 wbs_adr_i[12]
*320 wbs_adr_i[13]
*321 wbs_adr_i[14]
*322 wbs_adr_i[15]
*323 wbs_adr_i[16]
*324 wbs_adr_i[17]
*325 wbs_adr_i[18]
*326 wbs_adr_i[19]
*327 wbs_adr_i[1]
*328 wbs_adr_i[20]
*329 wbs_adr_i[21]
*330 wbs_adr_i[22]
*331 wbs_adr_i[23]
*332 wbs_adr_i[24]
*333 wbs_adr_i[25]
*334 wbs_adr_i[26]
*335 wbs_adr_i[27]
*336 wbs_adr_i[28]
*337 wbs_adr_i[29]
*338 wbs_adr_i[2]
*339 wbs_adr_i[30]
*340 wbs_adr_i[31]
*341 wbs_adr_i[3]
*342 wbs_adr_i[4]
*343 wbs_adr_i[5]
*344 wbs_adr_i[6]
*345 wbs_adr_i[7]
*346 wbs_adr_i[8]
*347 wbs_adr_i[9]
*348 wbs_cyc_i
*349 wbs_dat_i[0]
*350 wbs_dat_i[10]
*351 wbs_dat_i[11]
*352 wbs_dat_i[12]
*353 wbs_dat_i[13]
*354 wbs_dat_i[14]
*355 wbs_dat_i[15]
*356 wbs_dat_i[16]
*357 wbs_dat_i[17]
*358 wbs_dat_i[18]
*359 wbs_dat_i[19]
*360 wbs_dat_i[1]
*361 wbs_dat_i[20]
*362 wbs_dat_i[21]
*363 wbs_dat_i[22]
*364 wbs_dat_i[23]
*365 wbs_dat_i[24]
*366 wbs_dat_i[25]
*367 wbs_dat_i[26]
*368 wbs_dat_i[27]
*369 wbs_dat_i[28]
*370 wbs_dat_i[29]
*371 wbs_dat_i[2]
*372 wbs_dat_i[30]
*373 wbs_dat_i[31]
*374 wbs_dat_i[3]
*375 wbs_dat_i[4]
*376 wbs_dat_i[5]
*377 wbs_dat_i[6]
*378 wbs_dat_i[7]
*379 wbs_dat_i[8]
*380 wbs_dat_i[9]
*381 wbs_dat_o[0]
*382 wbs_dat_o[10]
*383 wbs_dat_o[11]
*384 wbs_dat_o[12]
*385 wbs_dat_o[13]
*386 wbs_dat_o[14]
*387 wbs_dat_o[15]
*388 wbs_dat_o[16]
*389 wbs_dat_o[17]
*390 wbs_dat_o[18]
*391 wbs_dat_o[19]
*392 wbs_dat_o[1]
*393 wbs_dat_o[20]
*394 wbs_dat_o[21]
*395 wbs_dat_o[22]
*396 wbs_dat_o[23]
*397 wbs_dat_o[24]
*398 wbs_dat_o[25]
*399 wbs_dat_o[26]
*400 wbs_dat_o[27]
*401 wbs_dat_o[28]
*402 wbs_dat_o[29]
*403 wbs_dat_o[2]
*404 wbs_dat_o[30]
*405 wbs_dat_o[31]
*406 wbs_dat_o[3]
*407 wbs_dat_o[4]
*408 wbs_dat_o[5]
*409 wbs_dat_o[6]
*410 wbs_dat_o[7]
*411 wbs_dat_o[8]
*412 wbs_dat_o[9]
*413 wbs_sel_i[0]
*414 wbs_sel_i[1]
*415 wbs_sel_i[2]
*416 wbs_sel_i[3]
*417 wbs_stb_i
*418 wbs_we_i
*419 mprj

*PORTS
io_in[0] I
io_in[10] I
io_in[11] I
io_in[12] I
io_in[13] I
io_in[14] I
io_in[15] I
io_in[16] I
io_in[17] I
io_in[18] I
io_in[19] I
io_in[1] I
io_in[20] I
io_in[21] I
io_in[22] I
io_in[23] I
io_in[24] I
io_in[25] I
io_in[26] I
io_in[27] I
io_in[28] I
io_in[29] I
io_in[2] I
io_in[30] I
io_in[31] I
io_in[32] I
io_in[33] I
io_in[34] I
io_in[35] I
io_in[36] I
io_in[37] I
io_in[3] I
io_in[4] I
io_in[5] I
io_in[6] I
io_in[7] I
io_in[8] I
io_in[9] I
io_oeb[0] O
io_oeb[10] O
io_oeb[11] O
io_oeb[12] O
io_oeb[13] O
io_oeb[14] O
io_oeb[15] O
io_oeb[16] O
io_oeb[17] O
io_oeb[18] O
io_oeb[19] O
io_oeb[1] O
io_oeb[20] O
io_oeb[21] O
io_oeb[22] O
io_oeb[23] O
io_oeb[24] O
io_oeb[25] O
io_oeb[26] O
io_oeb[27] O
io_oeb[28] O
io_oeb[29] O
io_oeb[2] O
io_oeb[30] O
io_oeb[31] O
io_oeb[32] O
io_oeb[33] O
io_oeb[34] O
io_oeb[35] O
io_oeb[36] O
io_oeb[37] O
io_oeb[3] O
io_oeb[4] O
io_oeb[5] O
io_oeb[6] O
io_oeb[7] O
io_oeb[8] O
io_oeb[9] O
io_out[0] O
io_out[10] O
io_out[11] O
io_out[12] O
io_out[13] O
io_out[14] O
io_out[15] O
io_out[16] O
io_out[17] O
io_out[18] O
io_out[19] O
io_out[1] O
io_out[20] O
io_out[21] O
io_out[22] O
io_out[23] O
io_out[24] O
io_out[25] O
io_out[26] O
io_out[27] O
io_out[28] O
io_out[29] O
io_out[2] O
io_out[30] O
io_out[31] O
io_out[32] O
io_out[33] O
io_out[34] O
io_out[35] O
io_out[36] O
io_out[37] O
io_out[3] O
io_out[4] O
io_out[5] O
io_out[6] O
io_out[7] O
io_out[8] O
io_out[9] O
la_data_in[0] I
la_data_in[10] I
la_data_in[11] I
la_data_in[12] I
la_data_in[13] I
la_data_in[14] I
la_data_in[15] I
la_data_in[16] I
la_data_in[17] I
la_data_in[18] I
la_data_in[19] I
la_data_in[1] I
la_data_in[20] I
la_data_in[21] I
la_data_in[22] I
la_data_in[23] I
la_data_in[24] I
la_data_in[25] I
la_data_in[26] I
la_data_in[27] I
la_data_in[28] I
la_data_in[29] I
la_data_in[2] I
la_data_in[30] I
la_data_in[31] I
la_data_in[32] I
la_data_in[33] I
la_data_in[34] I
la_data_in[35] I
la_data_in[36] I
la_data_in[37] I
la_data_in[38] I
la_data_in[39] I
la_data_in[3] I
la_data_in[40] I
la_data_in[41] I
la_data_in[42] I
la_data_in[43] I
la_data_in[44] I
la_data_in[45] I
la_data_in[46] I
la_data_in[47] I
la_data_in[48] I
la_data_in[49] I
la_data_in[4] I
la_data_in[50] I
la_data_in[51] I
la_data_in[52] I
la_data_in[53] I
la_data_in[54] I
la_data_in[55] I
la_data_in[56] I
la_data_in[57] I
la_data_in[58] I
la_data_in[59] I
la_data_in[5] I
la_data_in[60] I
la_data_in[61] I
la_data_in[62] I
la_data_in[63] I
la_data_in[6] I
la_data_in[7] I
la_data_in[8] I
la_data_in[9] I
la_data_out[0] O
la_data_out[10] O
la_data_out[11] O
la_data_out[12] O
la_data_out[13] O
la_data_out[14] O
la_data_out[15] O
la_data_out[16] O
la_data_out[17] O
la_data_out[18] O
la_data_out[19] O
la_data_out[1] O
la_data_out[20] O
la_data_out[21] O
la_data_out[22] O
la_data_out[23] O
la_data_out[24] O
la_data_out[25] O
la_data_out[26] O
la_data_out[27] O
la_data_out[28] O
la_data_out[29] O
la_data_out[2] O
la_data_out[30] O
la_data_out[31] O
la_data_out[32] O
la_data_out[33] O
la_data_out[34] O
la_data_out[35] O
la_data_out[36] O
la_data_out[37] O
la_data_out[38] O
la_data_out[39] O
la_data_out[3] O
la_data_out[40] O
la_data_out[41] O
la_data_out[42] O
la_data_out[43] O
la_data_out[44] O
la_data_out[45] O
la_data_out[46] O
la_data_out[47] O
la_data_out[48] O
la_data_out[49] O
la_data_out[4] O
la_data_out[50] O
la_data_out[51] O
la_data_out[52] O
la_data_out[53] O
la_data_out[54] O
la_data_out[55] O
la_data_out[56] O
la_data_out[57] O
la_data_out[58] O
la_data_out[59] O
la_data_out[5] O
la_data_out[60] O
la_data_out[61] O
la_data_out[62] O
la_data_out[63] O
la_data_out[6] O
la_data_out[7] O
la_data_out[8] O
la_data_out[9] O
la_oenb[0] I
la_oenb[10] I
la_oenb[11] I
la_oenb[12] I
la_oenb[13] I
la_oenb[14] I
la_oenb[15] I
la_oenb[16] I
la_oenb[17] I
la_oenb[18] I
la_oenb[19] I
la_oenb[1] I
la_oenb[20] I
la_oenb[21] I
la_oenb[22] I
la_oenb[23] I
la_oenb[24] I
la_oenb[25] I
la_oenb[26] I
la_oenb[27] I
la_oenb[28] I
la_oenb[29] I
la_oenb[2] I
la_oenb[30] I
la_oenb[31] I
la_oenb[32] I
la_oenb[33] I
la_oenb[34] I
la_oenb[35] I
la_oenb[36] I
la_oenb[37] I
la_oenb[38] I
la_oenb[39] I
la_oenb[3] I
la_oenb[40] I
la_oenb[41] I
la_oenb[42] I
la_oenb[43] I
la_oenb[44] I
la_oenb[45] I
la_oenb[46] I
la_oenb[47] I
la_oenb[48] I
la_oenb[49] I
la_oenb[4] I
la_oenb[50] I
la_oenb[51] I
la_oenb[52] I
la_oenb[53] I
la_oenb[54] I
la_oenb[55] I
la_oenb[56] I
la_oenb[57] I
la_oenb[58] I
la_oenb[59] I
la_oenb[5] I
la_oenb[60] I
la_oenb[61] I
la_oenb[62] I
la_oenb[63] I
la_oenb[6] I
la_oenb[7] I
la_oenb[8] I
la_oenb[9] I
user_clock2 I
user_irq[0] O
user_irq[1] O
user_irq[2] O
wb_clk_i I
wb_rst_i I
wbs_ack_o O
wbs_adr_i[0] I
wbs_adr_i[10] I
wbs_adr_i[11] I
wbs_adr_i[12] I
wbs_adr_i[13] I
wbs_adr_i[14] I
wbs_adr_i[15] I
wbs_adr_i[16] I
wbs_adr_i[17] I
wbs_adr_i[18] I
wbs_adr_i[19] I
wbs_adr_i[1] I
wbs_adr_i[20] I
wbs_adr_i[21] I
wbs_adr_i[22] I
wbs_adr_i[23] I
wbs_adr_i[24] I
wbs_adr_i[25] I
wbs_adr_i[26] I
wbs_adr_i[27] I
wbs_adr_i[28] I
wbs_adr_i[29] I
wbs_adr_i[2] I
wbs_adr_i[30] I
wbs_adr_i[31] I
wbs_adr_i[3] I
wbs_adr_i[4] I
wbs_adr_i[5] I
wbs_adr_i[6] I
wbs_adr_i[7] I
wbs_adr_i[8] I
wbs_adr_i[9] I
wbs_cyc_i I
wbs_dat_i[0] I
wbs_dat_i[10] I
wbs_dat_i[11] I
wbs_dat_i[12] I
wbs_dat_i[13] I
wbs_dat_i[14] I
wbs_dat_i[15] I
wbs_dat_i[16] I
wbs_dat_i[17] I
wbs_dat_i[18] I
wbs_dat_i[19] I
wbs_dat_i[1] I
wbs_dat_i[20] I
wbs_dat_i[21] I
wbs_dat_i[22] I
wbs_dat_i[23] I
wbs_dat_i[24] I
wbs_dat_i[25] I
wbs_dat_i[26] I
wbs_dat_i[27] I
wbs_dat_i[28] I
wbs_dat_i[29] I
wbs_dat_i[2] I
wbs_dat_i[30] I
wbs_dat_i[31] I
wbs_dat_i[3] I
wbs_dat_i[4] I
wbs_dat_i[5] I
wbs_dat_i[6] I
wbs_dat_i[7] I
wbs_dat_i[8] I
wbs_dat_i[9] I
wbs_dat_o[0] O
wbs_dat_o[10] O
wbs_dat_o[11] O
wbs_dat_o[12] O
wbs_dat_o[13] O
wbs_dat_o[14] O
wbs_dat_o[15] O
wbs_dat_o[16] O
wbs_dat_o[17] O
wbs_dat_o[18] O
wbs_dat_o[19] O
wbs_dat_o[1] O
wbs_dat_o[20] O
wbs_dat_o[21] O
wbs_dat_o[22] O
wbs_dat_o[23] O
wbs_dat_o[24] O
wbs_dat_o[25] O
wbs_dat_o[26] O
wbs_dat_o[27] O
wbs_dat_o[28] O
wbs_dat_o[29] O
wbs_dat_o[2] O
wbs_dat_o[30] O
wbs_dat_o[31] O
wbs_dat_o[3] O
wbs_dat_o[4] O
wbs_dat_o[5] O
wbs_dat_o[6] O
wbs_dat_o[7] O
wbs_dat_o[8] O
wbs_dat_o[9] O
wbs_sel_i[0] I
wbs_sel_i[1] I
wbs_sel_i[2] I
wbs_sel_i[3] I
wbs_stb_i I
wbs_we_i I

*D_NET *1 0.0167217
*CONN
*P io_in[0] I
*I *419:io_in[0] I *D user_proj_example
*CAP
1 io_in[0] 0.00309436
2 *419:io_in[0] 0.00526649
3 *1:11 0.00836085
*RES
1 io_in[0] *1:11 29.54 
2 *1:11 *419:io_in[0] 48.308 
*END

*D_NET *12 0.0172465
*CONN
*P io_in[1] I
*I *419:io_in[1] I *D user_proj_example
*CAP
1 io_in[1] 0.00626955
2 *419:io_in[1] 0.00235372
3 *12:5 0.00862327
*RES
1 io_in[1] *12:5 54.964 
2 *12:5 *419:io_in[1] 30.788 
*END

*D_NET *23 0.0190151
*CONN
*P io_in[2] I
*I *419:io_in[2] I *D user_proj_example
*CAP
1 io_in[2] 0.00642779
2 *419:io_in[2] 0.00307973
3 *23:5 0.00950753
*RES
1 io_in[2] *23:5 56.42 
2 *23:5 *419:io_in[2] 36.82 
*END

*D_NET *24 0.00775921
*CONN
*P io_in[30] I
*I *419:io_in[8] I *D user_proj_example
*CAP
1 io_in[30] 0.00387961
2 *419:io_in[8] 0.00387961
*RES
1 io_in[30] *419:io_in[8] 40.408 
*END

*D_NET *25 0.00634377
*CONN
*P io_in[31] I
*I *419:io_in[9] I *D user_proj_example
*CAP
1 io_in[31] 0.00317189
2 *419:io_in[9] 0.00317189
*RES
1 io_in[31] *419:io_in[9] 36.612 
*END

*D_NET *26 0.00561343
*CONN
*P io_in[32] I
*I *419:io_in[10] I *D user_proj_example
*CAP
1 io_in[32] 0.00280672
2 *419:io_in[10] 0.00280672
*RES
1 io_in[32] *419:io_in[10] 34.324 
*END

*D_NET *27 0.00496208
*CONN
*P io_in[33] I
*I *419:io_in[11] I *D user_proj_example
*CAP
1 io_in[33] 0.00248104
2 *419:io_in[11] 0.00248104
*RES
1 io_in[33] *419:io_in[11] 30.996 
*END

*D_NET *28 0.00465835
*CONN
*P io_in[34] I
*I *419:io_in[12] I *D user_proj_example
*CAP
1 io_in[34] 0.00232917
2 *419:io_in[12] 0.00232917
*RES
1 io_in[34] *419:io_in[12] 28.552 
*END

*D_NET *29 0.00374289
*CONN
*P io_in[35] I
*I *419:io_in[13] I *D user_proj_example
*CAP
1 io_in[35] 0.00187145
2 *419:io_in[13] 0.00187145
*RES
1 io_in[35] *419:io_in[13] 26.056 
*END

*D_NET *30 0.00353033
*CONN
*P io_in[36] I
*I *419:io_in[14] I *D user_proj_example
*CAP
1 io_in[36] 0.00176516
2 *419:io_in[14] 0.00176516
*RES
1 io_in[36] *419:io_in[14] 24.132 
*END

*D_NET *31 0.00300111
*CONN
*P io_in[37] I
*I *419:io_in[15] I *D user_proj_example
*CAP
1 io_in[37] 0.00150056
2 *419:io_in[15] 0.00150056
*RES
1 io_in[37] *419:io_in[15] 21.844 
*END

*D_NET *32 0.0239284
*CONN
*P io_in[3] I
*I *419:io_in[3] I *D user_proj_example
*CAP
1 io_in[3] 0.00644931
2 *419:io_in[3] 0.00346439
3 *32:5 0.0099137
4 *419:io_in[3] *61:11 0.00154016
5 *419:io_in[3] *108:11 0.00256086
*RES
1 io_in[3] *32:5 56.42 
2 *32:5 *419:io_in[3] 44.308 
*END

*D_NET *33 0.029935
*CONN
*P io_in[4] I
*I *419:io_in[4] I *D user_proj_example
*CAP
1 io_in[4] 0.00640518
2 *419:io_in[4] 0.000540647
3 *33:11 0.00354731
4 *33:5 0.00941185
5 *33:11 *70:11 0.00451188
6 *33:11 *109:9 0.00551813
*RES
1 io_in[4] *33:5 56.212 
2 *33:5 *33:11 47.376 
3 *33:11 *419:io_in[4] 4.628 
*END

*D_NET *34 0.0301017
*CONN
*P io_in[5] I
*I *419:io_in[5] I *D user_proj_example
*CAP
1 io_in[5] 0.00644931
2 *419:io_in[5] 0.000496524
3 *34:9 0.00395729
4 *34:7 0.00346076
5 *34:5 0.00644931
6 *34:9 *71:11 0.00752389
7 *34:9 *110:9 0.00176465
*RES
1 io_in[5] *34:5 56.42 
2 *34:5 *34:7 4.5 
3 *34:7 *34:9 45.864 
4 *34:9 *419:io_in[5] 8.92 
*END

*D_NET *35 0.0359245
*CONN
*P io_in[6] I
*I *419:io_in[6] I *D user_proj_example
*CAP
1 io_in[6] 0.00637635
2 *419:io_in[6] 0.000584769
3 *35:9 0.00362344
4 *35:7 0.00303867
5 *35:5 0.00637635
6 *35:5 *110:7 2.6362e-05
7 *35:9 *72:9 0.00434222
8 *35:9 *111:9 0.0115564
*RES
1 io_in[6] *35:5 56.004 
2 *35:5 *35:7 4.5 
3 *35:7 *35:9 53.352 
4 *35:9 *419:io_in[6] 9.336 
*END

*D_NET *36 0.0414219
*CONN
*P io_in[7] I
*I *419:io_in[7] I *D user_proj_example
*CAP
1 io_in[7] 0.00638258
2 *419:io_in[7] 0.000584769
3 *36:9 0.00418223
4 *36:7 0.00359746
5 *36:5 0.00638258
6 *36:9 *73:9 0.00311133
7 *36:9 *111:9 0.0027294
8 *36:9 *112:9 0.0144516
*RES
1 io_in[7] *36:5 56.004 
2 *36:5 *36:7 4.5 
3 *36:7 *36:9 60.84 
4 *36:9 *419:io_in[7] 9.336 
*END

*D_NET *39 0.0168817
*CONN
*P io_oeb[0] O
*I *419:io_oeb[0] O *D user_proj_example
*CAP
1 io_oeb[0] 0.00389587
2 *419:io_oeb[0] 0.00454496
3 *39:11 0.00844083
*RES
1 *419:io_oeb[0] *39:11 49.924 
2 *39:11 io_oeb[0] 33.124 
*END

*D_NET *50 0.018744
*CONN
*P io_oeb[1] O
*I *419:io_oeb[1] O *D user_proj_example
*CAP
1 io_oeb[1] 0.00642779
2 *419:io_oeb[1] 0.00294421
3 *50:11 0.009372
*RES
1 *419:io_oeb[1] *50:11 34.324 
2 *50:11 io_oeb[1] 56.42 
*END

*D_NET *61 0.0214888
*CONN
*P io_oeb[2] O
*I *419:io_oeb[2] O *D user_proj_example
*CAP
1 io_oeb[2] 0.00642246
2 *419:io_oeb[2] 0.00343537
3 *61:11 0.00985783
4 io_oeb[2] *99:11 8.9253e-06
5 *61:11 *99:11 0.00022407
6 *419:io_in[3] *61:11 0.00154016
*RES
1 *419:io_oeb[2] *61:11 42.02 
2 *61:11 io_oeb[2] 56.212 
*END

*D_NET *62 0.00651793
*CONN
*P io_oeb[30] O
*I *419:io_oeb[8] O *D user_proj_example
*CAP
1 io_oeb[30] 0.00325896
2 *419:io_oeb[8] 0.00325896
*RES
1 *419:io_oeb[8] io_oeb[30] 37.444 
*END

*D_NET *63 0.00540728
*CONN
*P io_oeb[31] O
*I *419:io_oeb[9] O *D user_proj_example
*CAP
1 io_oeb[31] 0.00270364
2 *419:io_oeb[9] 0.00270364
*RES
1 *419:io_oeb[9] io_oeb[31] 34.324 
*END

*D_NET *64 0.00535026
*CONN
*P io_oeb[32] O
*I *419:io_oeb[10] O *D user_proj_example
*CAP
1 io_oeb[32] 0.00267513
2 *419:io_oeb[10] 0.00267513
*RES
1 *419:io_oeb[10] io_oeb[32] 31.88 
*END

*D_NET *65 0.00468418
*CONN
*P io_oeb[33] O
*I *419:io_oeb[11] O *D user_proj_example
*CAP
1 io_oeb[33] 0.00234209
2 *419:io_oeb[11] 0.00234209
*RES
1 *419:io_oeb[11] io_oeb[33] 29.592 
*END

*D_NET *66 0.00466716
*CONN
*P io_oeb[34] O
*I *419:io_oeb[12] O *D user_proj_example
*CAP
1 io_oeb[34] 0.00233358
2 *419:io_oeb[12] 0.00233358
*RES
1 *419:io_oeb[12] io_oeb[34] 28.76 
*END

*D_NET *67 0.00365419
*CONN
*P io_oeb[35] O
*I *419:io_oeb[13] O *D user_proj_example
*CAP
1 io_oeb[35] 0.0018271
2 *419:io_oeb[13] 0.0018271
*RES
1 *419:io_oeb[13] io_oeb[35] 24.964 
*END

*D_NET *68 0.00279496
*CONN
*P io_oeb[36] O
*I *419:io_oeb[14] O *D user_proj_example
*CAP
1 io_oeb[36] 0.00139748
2 *419:io_oeb[14] 0.00139748
*RES
1 *419:io_oeb[14] io_oeb[36] 21.844 
*END

*D_NET *69 0.00265956
*CONN
*P io_oeb[37] O
*I *419:io_oeb[15] O *D user_proj_example
*CAP
1 io_oeb[37] 0.00132978
2 *419:io_oeb[15] 0.00132978
*RES
1 *419:io_oeb[15] io_oeb[37] 19.972 
*END

*D_NET *70 0.02797
*CONN
*P io_oeb[3] O
*I *419:io_oeb[3] O *D user_proj_example
*CAP
1 io_oeb[3] 0.00644931
2 *419:io_oeb[3] 0.00354035
3 *70:11 0.00998965
4 *70:11 *108:11 0.00347883
5 *33:11 *70:11 0.00451188
*RES
1 *419:io_oeb[3] *70:11 49.3 
2 *70:11 io_oeb[3] 56.42 
*END

*D_NET *71 0.0338849
*CONN
*P io_oeb[4] O
*I *419:io_oeb[4] O *D user_proj_example
*CAP
1 io_oeb[4] 0.00640518
2 *419:io_oeb[4] 0.000540647
3 *71:11 0.0093369
4 *71:7 0.00347236
5 *71:11 *109:9 0.00660592
6 *34:9 *71:11 0.00752389
*RES
1 *419:io_oeb[4] *71:7 9.128 
2 *71:7 *71:11 47.868 
3 *71:11 io_oeb[4] 56.212 
*END

*D_NET *72 0.0279143
*CONN
*P io_oeb[5] O
*I *419:io_oeb[5] O *D user_proj_example
*CAP
1 io_oeb[5] 0.00644929
2 *419:io_oeb[5] 0.000496524
3 *72:11 0.00644929
4 *72:9 0.00350212
5 *72:7 0.00399864
6 *72:9 *110:9 0.00196931
7 *72:9 *111:9 0.000706869
8 *35:9 *72:9 0.00434222
*RES
1 *419:io_oeb[5] *72:7 8.92 
2 *72:7 *72:9 50.648 
3 *72:9 *72:11 4.5 
4 *72:11 io_oeb[5] 56.42 
*END

*D_NET *73 0.0401543
*CONN
*P io_oeb[6] O
*I *419:io_oeb[6] O *D user_proj_example
*CAP
1 io_oeb[6] 0.00647082
2 *419:io_oeb[6] 0.000496524
3 *73:11 0.00647082
4 *73:9 0.00347007
5 *73:7 0.0039666
6 *73:9 *111:9 0.0125006
7 *73:9 *112:9 0.00366761
8 *36:9 *73:9 0.00311133
*RES
1 *419:io_oeb[6] *73:7 8.92 
2 *73:7 *73:9 58.344 
3 *73:9 *73:11 4.5 
4 *73:11 io_oeb[6] 56.42 
*END

*D_NET *74 0.0403544
*CONN
*P io_oeb[7] O
*I *419:io_oeb[7] O *D user_proj_example
*CAP
1 io_oeb[7] 0.00647082
2 *419:io_oeb[7] 0.000635982
3 *74:11 0.00647082
4 *74:9 0.00530322
5 *74:7 0.0059392
6 *74:9 *112:9 0.0155343
*RES
1 *419:io_oeb[7] *74:7 8.92 
2 *74:7 *74:9 65.832 
3 *74:9 *74:11 4.5 
4 *74:11 io_oeb[7] 56.42 
*END

*D_NET *77 0.0164027
*CONN
*P io_out[0] O
*I *419:io_out[0] O *D user_proj_example
*CAP
1 io_out[0] 0.00319507
2 *419:io_out[0] 0.0050063
3 *77:9 0.00820137
*RES
1 *419:io_out[0] *77:9 49.584 
2 *77:9 io_out[0] 31.176 
*END

*D_NET *88 0.0180204
*CONN
*P io_out[1] O
*I *419:io_out[1] O *D user_proj_example
*CAP
1 io_out[1] 0.00626955
2 *419:io_out[1] 0.00274066
3 *88:11 0.00901021
*RES
1 *419:io_out[1] *88:11 33.284 
2 *88:11 io_out[1] 54.964 
*END

*D_NET *99 0.019961
*CONN
*P io_out[2] O
*I *419:io_out[2] O *D user_proj_example
*CAP
1 io_out[2] 0.00635997
2 *419:io_out[2] 0.00350405
3 *99:11 0.00986402
4 io_oeb[2] *99:11 8.9253e-06
5 *61:11 *99:11 0.00022407
*RES
1 *419:io_out[2] *99:11 39.94 
2 *99:11 io_out[2] 55.796 
*END

*D_NET *100 0.00648421
*CONN
*P io_out[30] O
*I *419:io_out[8] O *D user_proj_example
*CAP
1 io_out[30] 0.0032421
2 *419:io_out[8] 0.0032421
*RES
1 *419:io_out[8] io_out[30] 38.484 
*END

*D_NET *101 0.00596849
*CONN
*P io_out[31] O
*I *419:io_out[9] O *D user_proj_example
*CAP
1 io_out[31] 0.00298425
2 *419:io_out[9] 0.00298425
*RES
1 *419:io_out[9] io_out[31] 35.78 
*END

*D_NET *102 0.00550037
*CONN
*P io_out[32] O
*I *419:io_out[10] O *D user_proj_example
*CAP
1 io_out[32] 0.00275019
2 *419:io_out[10] 0.00275019
*RES
1 *419:io_out[10] io_out[32] 32.66 
*END

*D_NET *103 0.00526357
*CONN
*P io_out[33] O
*I *419:io_out[11] O *D user_proj_example
*CAP
1 io_out[33] 0.00263178
2 *419:io_out[11] 0.00263178
*RES
1 *419:io_out[11] io_out[33] 32.088 
*END

*D_NET *104 0.00434262
*CONN
*P io_out[34] O
*I *419:io_out[12] O *D user_proj_example
*CAP
1 io_out[34] 0.00217131
2 *419:io_out[12] 0.00217131
*RES
1 *419:io_out[12] io_out[34] 27.72 
*END

*D_NET *105 0.0038134
*CONN
*P io_out[35] O
*I *419:io_out[13] O *D user_proj_example
*CAP
1 io_out[35] 0.0019067
2 *419:io_out[13] 0.0019067
*RES
1 *419:io_out[13] io_out[35] 25.432 
*END

*D_NET *106 0.00310476
*CONN
*P io_out[36] O
*I *419:io_out[14] O *D user_proj_example
*CAP
1 io_out[36] 0.00155238
2 *419:io_out[14] 0.00155238
*RES
1 *419:io_out[14] io_out[36] 23.3 
*END

*D_NET *107 0.00244666
*CONN
*P io_out[37] O
*I *419:io_out[15] O *D user_proj_example
*CAP
1 io_out[37] 0.00122333
2 *419:io_out[15] 0.00122333
*RES
1 *419:io_out[15] io_out[37] 20.18 
*END

*D_NET *108 0.0257919
*CONN
*P io_out[3] O
*I *419:io_out[3] O *D user_proj_example
*CAP
1 io_out[3] 0.00640518
2 *419:io_out[3] 0.00347091
3 *108:11 0.00987609
4 *419:io_in[3] *108:11 0.00256086
5 *70:11 *108:11 0.00347883
*RES
1 *419:io_out[3] *108:11 47.012 
2 *108:11 io_out[3] 56.212 
*END

*D_NET *109 0.0318936
*CONN
*P io_out[4] O
*I *419:io_out[4] O *D user_proj_example
*CAP
1 io_out[4] 0.00644931
2 *419:io_out[4] 0.00343546
3 *109:11 0.00644931
4 *109:9 0.00343546
5 *33:11 *109:9 0.00551813
6 *71:11 *109:9 0.00660592
*RES
1 *419:io_out[4] *109:9 49.792 
2 *109:9 *109:11 4.5 
3 *109:11 io_out[4] 56.42 
*END

*D_NET *110 0.0260376
*CONN
*P io_out[5] O
*I *419:io_out[5] O *D user_proj_example
*CAP
1 io_out[5] 0.00633737
2 *419:io_out[5] 0.000756121
3 *110:11 0.00633737
4 *110:9 0.00404514
5 *110:7 0.00480126
6 *34:9 *110:9 0.00176465
7 *35:5 *110:7 2.6362e-05
8 *72:9 *110:9 0.00196931
*RES
1 *419:io_out[5] *110:7 9.752 
2 *110:7 *110:9 48.36 
3 *110:9 *110:11 4.5 
4 *110:11 io_out[5] 55.588 
*END

*D_NET *111 0.0465082
*CONN
*P io_out[6] O
*I *419:io_out[6] O *D user_proj_example
*CAP
1 io_out[6] 0.0064267
2 *419:io_out[6] 0.000540647
3 *111:11 0.0064267
4 *111:9 0.00254018
5 *111:7 0.00308083
6 *35:9 *111:9 0.0115564
7 *36:9 *111:9 0.0027294
8 *72:9 *111:9 0.000706869
9 *73:9 *111:9 0.0125006
*RES
1 *419:io_out[6] *111:7 9.128 
2 *111:7 *111:9 55.848 
3 *111:9 *111:11 4.5 
4 *111:11 io_out[6] 56.212 
*END

*D_NET *112 0.0560576
*CONN
*P io_out[7] O
*I *419:io_out[7] O *D user_proj_example
*CAP
1 io_out[7] 0.00816488
2 *419:io_out[7] 0.000540647
3 *112:11 0.00816488
4 *112:9 0.00249648
5 *112:7 0.00303713
6 *36:9 *112:9 0.0144516
7 *73:9 *112:9 0.00366761
8 *74:9 *112:9 0.0155343
*RES
1 *419:io_out[7] *112:7 9.128 
2 *112:7 *112:9 63.336 
3 *112:9 *112:11 4.5 
4 *112:11 io_out[7] 56.212 
*END

*D_NET *115 0.00871971
*CONN
*P la_data_in[0] I
*I *419:la_data_in[0] I *D user_proj_example
*CAP
1 la_data_in[0] 0.00163424
2 *419:la_data_in[0] 0.00163424
3 *419:la_data_in[0] la_data_out[0] 0.00158799
4 *419:la_data_in[0] wbs_dat_o[30] 0
5 *419:la_data_in[0] *419:la_oenb[0] 0.00386323
6 *419:la_data_in[0] *419:wbs_adr_i[31] 0
7 *419:la_data_in[0] *419:wbs_dat_i[30] 0
*RES
1 la_data_in[0] *419:la_data_in[0] 32.4 
*END

*D_NET *116 0.0136524
*CONN
*P la_data_in[10] I
*I *419:la_data_in[10] I *D user_proj_example
*CAP
1 la_data_in[10] 0.00237328
2 *419:la_data_in[10] 0.00237328
3 *419:la_data_in[10] *419:la_data_in[8] 1.53852e-05
4 *419:la_data_in[10] *419:la_oenb[10] 0.00134047
5 *419:la_data_in[10] *419:la_oenb[7] 0
6 *419:la_data_in[10] *419:la_oenb[9] 0.00754996
*RES
1 la_data_in[10] *419:la_data_in[10] 39.472 
*END

*D_NET *117 0.00905384
*CONN
*P la_data_in[11] I
*I *419:la_data_in[11] I *D user_proj_example
*CAP
1 la_data_in[11] 0.00242281
2 *419:la_data_in[11] 0.00242281
3 *419:la_data_in[11] la_data_out[10] 0.00177374
4 *419:la_data_in[11] la_data_out[12] 0.000779948
5 *419:la_data_in[11] la_data_out[13] 5.5221e-05
6 *419:la_data_in[11] *419:la_data_in[13] 0.00159931
*RES
1 la_data_in[11] *419:la_data_in[11] 38.744 
*END

*D_NET *118 0.0195601
*CONN
*P la_data_in[12] I
*I *419:la_data_in[12] I *D user_proj_example
*CAP
1 la_data_in[12] 0.000976437
2 *419:la_data_in[12] 0.000976437
3 *419:la_data_in[12] la_data_out[14] 0.000455919
4 *419:la_data_in[12] *419:la_data_in[14] 0.00058336
5 *419:la_data_in[12] *419:la_oenb[10] 0.00181152
6 *419:la_data_in[12] *419:la_oenb[11] 0.00761899
7 *419:la_data_in[12] *419:la_oenb[12] 0.00710886
8 *419:la_data_in[12] *419:la_oenb[9] 2.85765e-05
*RES
1 la_data_in[12] *419:la_data_in[12] 39.888 
*END

*D_NET *119 0.0100861
*CONN
*P la_data_in[13] I
*I *419:la_data_in[13] I *D user_proj_example
*CAP
1 la_data_in[13] 0.0023552
2 *419:la_data_in[13] 0.0023552
3 *419:la_data_in[13] la_data_out[12] 0.00301529
4 *419:la_data_in[13] la_data_out[13] 0.000160058
5 *419:la_data_in[13] la_data_out[15] 0
6 *419:la_data_in[13] *419:la_data_in[15] 0.000601016
7 *419:la_data_in[13] *419:la_oenb[15] 0
8 *419:la_data_in[11] *419:la_data_in[13] 0.00159931
*RES
1 la_data_in[13] *419:la_data_in[13] 39.368 
*END

*D_NET *120 0.0194258
*CONN
*P la_data_in[14] I
*I *419:la_data_in[14] I *D user_proj_example
*CAP
1 la_data_in[14] 0.00122316
2 *419:la_data_in[14] 0.00122316
3 *419:la_data_in[14] la_data_out[13] 0.00467486
4 *419:la_data_in[14] la_data_out[14] 0.00880702
5 *419:la_data_in[14] *419:la_data_in[16] 0.00226161
6 *419:la_data_in[14] *419:la_oenb[11] 0.000447112
7 *419:la_data_in[14] *419:la_oenb[15] 0.000197599
8 *419:la_data_in[14] *419:la_oenb[16] 7.87395e-06
9 *419:la_data_in[12] *419:la_data_in[14] 0.00058336
*RES
1 la_data_in[14] *419:la_data_in[14] 40.096 
*END

*D_NET *121 0.0112041
*CONN
*P la_data_in[15] I
*I *419:la_data_in[15] I *D user_proj_example
*CAP
1 la_data_in[15] 0.00255728
2 *419:la_data_in[15] 0.00255728
3 *419:la_data_in[15] la_data_out[13] 0.00114321
4 *419:la_data_in[15] *419:la_oenb[15] 0.00281692
5 *419:la_data_in[15] *419:la_oenb[17] 0.0002514
6 *419:la_data_in[15] *187:17 0.00127697
7 *419:la_data_in[13] *419:la_data_in[15] 0.000601016
*RES
1 la_data_in[15] *419:la_data_in[15] 42.488 
*END

*D_NET *122 0.0192241
*CONN
*P la_data_in[16] I
*I *419:la_data_in[16] I *D user_proj_example
*CAP
1 la_data_in[16] 0.0010232
2 *419:la_data_in[16] 0.0010232
3 *419:la_data_in[16] la_data_out[13] 6.8199e-07
4 *419:la_data_in[16] la_data_out[14] 0.00016407
5 *419:la_data_in[16] la_data_out[18] 0
6 *419:la_data_in[16] *419:la_data_in[17] 0.00491807
7 *419:la_data_in[16] *419:la_data_in[18] 0.00283603
8 *419:la_data_in[16] *419:la_oenb[15] 0.00518037
9 *419:la_data_in[16] *419:la_oenb[16] 0.00123345
10 *419:la_data_in[16] *419:la_oenb[17] 0.00058336
11 *419:la_data_in[14] *419:la_data_in[16] 0.00226161
*RES
1 la_data_in[16] *419:la_data_in[16] 41.864 
*END

*D_NET *123 0.0185144
*CONN
*P la_data_in[17] I
*I *419:la_data_in[17] I *D user_proj_example
*CAP
1 la_data_in[17] 0.00102645
2 *419:la_data_in[17] 0.00102645
3 *419:la_data_in[17] la_data_out[14] 4.67771e-06