*SPEF "ieee 1481-1999"
*DESIGN "user_project_wrapper"
*DATE "11:11:11 Fri 11 11, 1111"
*VENDOR "OpenRCX"
*PROGRAM "Parallel Extraction"
*VERSION "1.0"
*DESIGN_FLOW "NAME_SCOPE LOCAL" "PIN_CAP NONE"
*DIVIDER /
*DELIMITER :
*BUS_DELIMITER []
*T_UNIT 1 NS
*C_UNIT 1 PF
*R_UNIT 1 OHM
*L_UNIT 1 HENRY

*NAME_MAP
*1 io_in[0]
*2 io_in[10]
*3 io_in[11]
*4 io_in[12]
*5 io_in[13]
*6 io_in[14]
*7 io_in[15]
*8 io_in[16]
*9 io_in[17]
*10 io_in[18]
*11 io_in[19]
*12 io_in[1]
*13 io_in[20]
*14 io_in[21]
*15 io_in[22]
*16 io_in[23]
*17 io_in[24]
*18 io_in[25]
*19 io_in[26]
*20 io_in[27]
*21 io_in[28]
*22 io_in[29]
*23 io_in[2]
*24 io_in[30]
*25 io_in[31]
*26 io_in[32]
*27 io_in[33]
*28 io_in[34]
*29 io_in[35]
*30 io_in[36]
*31 io_in[37]
*32 io_in[3]
*33 io_in[4]
*34 io_in[5]
*35 io_in[6]
*36 io_in[7]
*37 io_in[8]
*38 io_in[9]
*39 io_oeb[0]
*40 io_oeb[10]
*41 io_oeb[11]
*42 io_oeb[12]
*43 io_oeb[13]
*44 io_oeb[14]
*45 io_oeb[15]
*46 io_oeb[16]
*47 io_oeb[17]
*48 io_oeb[18]
*49 io_oeb[19]
*50 io_oeb[1]
*51 io_oeb[20]
*52 io_oeb[21]
*53 io_oeb[22]
*54 io_oeb[23]
*55 io_oeb[24]
*56 io_oeb[25]
*57 io_oeb[26]
*58 io_oeb[27]
*59 io_oeb[28]
*60 io_oeb[29]
*61 io_oeb[2]
*62 io_oeb[30]
*63 io_oeb[31]
*64 io_oeb[32]
*65 io_oeb[33]
*66 io_oeb[34]
*67 io_oeb[35]
*68 io_oeb[36]
*69 io_oeb[37]
*70 io_oeb[3]
*71 io_oeb[4]
*72 io_oeb[5]
*73 io_oeb[6]
*74 io_oeb[7]
*75 io_oeb[8]
*76 io_oeb[9]
*77 io_out[0]
*78 io_out[10]
*79 io_out[11]
*80 io_out[12]
*81 io_out[13]
*82 io_out[14]
*83 io_out[15]
*84 io_out[16]
*85 io_out[17]
*86 io_out[18]
*87 io_out[19]
*88 io_out[1]
*89 io_out[20]
*90 io_out[21]
*91 io_out[22]
*92 io_out[23]
*93 io_out[24]
*94 io_out[25]
*95 io_out[26]
*96 io_out[27]
*97 io_out[28]
*98 io_out[29]
*99 io_out[2]
*100 io_out[30]
*101 io_out[31]
*102 io_out[32]
*103 io_out[33]
*104 io_out[34]
*105 io_out[35]
*106 io_out[36]
*107 io_out[37]
*108 io_out[3]
*109 io_out[4]
*110 io_out[5]
*111 io_out[6]
*112 io_out[7]
*113 io_out[8]
*114 io_out[9]
*115 la_data_in[0]
*116 la_data_in[10]
*117 la_data_in[11]
*118 la_data_in[12]
*119 la_data_in[13]
*120 la_data_in[14]
*121 la_data_in[15]
*122 la_data_in[16]
*123 la_data_in[17]
*124 la_data_in[18]
*125 la_data_in[19]
*126 la_data_in[1]
*127 la_data_in[20]
*128 la_data_in[21]
*129 la_data_in[22]
*130 la_data_in[23]
*131 la_data_in[24]
*132 la_data_in[25]
*133 la_data_in[26]
*134 la_data_in[27]
*135 la_data_in[28]
*136 la_data_in[29]
*137 la_data_in[2]
*138 la_data_in[30]
*139 la_data_in[31]
*140 la_data_in[32]
*141 la_data_in[33]
*142 la_data_in[34]
*143 la_data_in[35]
*144 la_data_in[36]
*145 la_data_in[37]
*146 la_data_in[38]
*147 la_data_in[39]
*148 la_data_in[3]
*149 la_data_in[40]
*150 la_data_in[41]
*151 la_data_in[42]
*152 la_data_in[43]
*153 la_data_in[44]
*154 la_data_in[45]
*155 la_data_in[46]
*156 la_data_in[47]
*157 la_data_in[48]
*158 la_data_in[49]
*159 la_data_in[4]
*160 la_data_in[50]
*161 la_data_in[51]
*162 la_data_in[52]
*163 la_data_in[53]
*164 la_data_in[54]
*165 la_data_in[55]
*166 la_data_in[56]
*167 la_data_in[57]
*168 la_data_in[58]
*169 la_data_in[59]
*170 la_data_in[5]
*171 la_data_in[60]
*172 la_data_in[61]
*173 la_data_in[62]
*174 la_data_in[63]
*175 la_data_in[6]
*176 la_data_in[7]
*177 la_data_in[8]
*178 la_data_in[9]
*179 la_data_out[0]
*180 la_data_out[10]
*181 la_data_out[11]
*182 la_data_out[12]
*183 la_data_out[13]
*184 la_data_out[14]
*185 la_data_out[15]
*186 la_data_out[16]
*187 la_data_out[17]
*188 la_data_out[18]
*189 la_data_out[19]
*190 la_data_out[1]
*191 la_data_out[20]
*192 la_data_out[21]
*193 la_data_out[22]
*194 la_data_out[23]
*195 la_data_out[24]
*196 la_data_out[25]
*197 la_data_out[26]
*198 la_data_out[27]
*199 la_data_out[28]
*200 la_data_out[29]
*201 la_data_out[2]
*202 la_data_out[30]
*203 la_data_out[31]
*204 la_data_out[32]
*205 la_data_out[33]
*206 la_data_out[34]
*207 la_data_out[35]
*208 la_data_out[36]
*209 la_data_out[37]
*210 la_data_out[38]
*211 la_data_out[39]
*212 la_data_out[3]
*213 la_data_out[40]
*214 la_data_out[41]
*215 la_data_out[42]
*216 la_data_out[43]
*217 la_data_out[44]
*218 la_data_out[45]
*219 la_data_out[46]
*220 la_data_out[47]
*221 la_data_out[48]
*222 la_data_out[49]
*223 la_data_out[4]
*224 la_data_out[50]
*225 la_data_out[51]
*226 la_data_out[52]
*227 la_data_out[53]
*228 la_data_out[54]
*229 la_data_out[55]
*230 la_data_out[56]
*231 la_data_out[57]
*232 la_data_out[58]
*233 la_data_out[59]
*234 la_data_out[5]
*235 la_data_out[60]
*236 la_data_out[61]
*237 la_data_out[62]
*238 la_data_out[63]
*239 la_data_out[6]
*240 la_data_out[7]
*241 la_data_out[8]
*242 la_data_out[9]
*243 la_oenb[0]
*244 la_oenb[10]
*245 la_oenb[11]
*246 la_oenb[12]
*247 la_oenb[13]
*248 la_oenb[14]
*249 la_oenb[15]
*250 la_oenb[16]
*251 la_oenb[17]
*252 la_oenb[18]
*253 la_oenb[19]
*254 la_oenb[1]
*255 la_oenb[20]
*256 la_oenb[21]
*257 la_oenb[22]
*258 la_oenb[23]
*259 la_oenb[24]
*260 la_oenb[25]
*261 la_oenb[26]
*262 la_oenb[27]
*263 la_oenb[28]
*264 la_oenb[29]
*265 la_oenb[2]
*266 la_oenb[30]
*267 la_oenb[31]
*268 la_oenb[32]
*269 la_oenb[33]
*270 la_oenb[34]
*271 la_oenb[35]
*272 la_oenb[36]
*273 la_oenb[37]
*274 la_oenb[38]
*275 la_oenb[39]
*276 la_oenb[3]
*277 la_oenb[40]
*278 la_oenb[41]
*279 la_oenb[42]
*280 la_oenb[43]
*281 la_oenb[44]
*282 la_oenb[45]
*283 la_oenb[46]
*284 la_oenb[47]
*285 la_oenb[48]
*286 la_oenb[49]
*287 la_oenb[4]
*288 la_oenb[50]
*289 la_oenb[51]
*290 la_oenb[52]
*291 la_oenb[53]
*292 la_oenb[54]
*293 la_oenb[55]
*294 la_oenb[56]
*295 la_oenb[57]
*296 la_oenb[58]
*297 la_oenb[59]
*298 la_oenb[5]
*299 la_oenb[60]
*300 la_oenb[61]
*301 la_oenb[62]
*302 la_oenb[63]
*303 la_oenb[6]
*304 la_oenb[7]
*305 la_oenb[8]
*306 la_oenb[9]
*307 user_clock2
*308 user_irq[0]
*309 user_irq[1]
*310 user_irq[2]
*313 wb_clk_i
*314 wb_rst_i
*315 wbs_ack_o
*316 wbs_adr_i[0]
*317 wbs_adr_i[10]
*318 wbs_adr_i[11]
*319 wbs_adr_i[12]
*320 wbs_adr_i[13]
*321 wbs_adr_i[14]
*322 wbs_adr_i[15]
*323 wbs_adr_i[16]
*324 wbs_adr_i[17]
*325 wbs_adr_i[18]
*326 wbs_adr_i[19]
*327 wbs_adr_i[1]
*328 wbs_adr_i[20]
*329 wbs_adr_i[21]
*330 wbs_adr_i[22]
*331 wbs_adr_i[23]
*332 wbs_adr_i[24]
*333 wbs_adr_i[25]
*334 wbs_adr_i[26]
*335 wbs_adr_i[27]
*336 wbs_adr_i[28]
*337 wbs_adr_i[29]
*338 wbs_adr_i[2]
*339 wbs_adr_i[30]
*340 wbs_adr_i[31]
*341 wbs_adr_i[3]
*342 wbs_adr_i[4]
*343 wbs_adr_i[5]
*344 wbs_adr_i[6]
*345 wbs_adr_i[7]
*346 wbs_adr_i[8]
*347 wbs_adr_i[9]
*348 wbs_cyc_i
*349 wbs_dat_i[0]
*350 wbs_dat_i[10]
*351 wbs_dat_i[11]
*352 wbs_dat_i[12]
*353 wbs_dat_i[13]
*354 wbs_dat_i[14]
*355 wbs_dat_i[15]
*356 wbs_dat_i[16]
*357 wbs_dat_i[17]
*358 wbs_dat_i[18]
*359 wbs_dat_i[19]
*360 wbs_dat_i[1]
*361 wbs_dat_i[20]
*362 wbs_dat_i[21]
*363 wbs_dat_i[22]
*364 wbs_dat_i[23]
*365 wbs_dat_i[24]
*366 wbs_dat_i[25]
*367 wbs_dat_i[26]
*368 wbs_dat_i[27]
*369 wbs_dat_i[28]
*370 wbs_dat_i[29]
*371 wbs_dat_i[2]
*372 wbs_dat_i[30]
*373 wbs_dat_i[31]
*374 wbs_dat_i[3]
*375 wbs_dat_i[4]
*376 wbs_dat_i[5]
*377 wbs_dat_i[6]
*378 wbs_dat_i[7]
*379 wbs_dat_i[8]
*380 wbs_dat_i[9]
*381 wbs_dat_o[0]
*382 wbs_dat_o[10]
*383 wbs_dat_o[11]
*384 wbs_dat_o[12]
*385 wbs_dat_o[13]
*386 wbs_dat_o[14]
*387 wbs_dat_o[15]
*388 wbs_dat_o[16]
*389 wbs_dat_o[17]
*390 wbs_dat_o[18]
*391 wbs_dat_o[19]
*392 wbs_dat_o[1]
*393 wbs_dat_o[20]
*394 wbs_dat_o[21]
*395 wbs_dat_o[22]
*396 wbs_dat_o[23]
*397 wbs_dat_o[24]
*398 wbs_dat_o[25]
*399 wbs_dat_o[26]
*400 wbs_dat_o[27]
*401 wbs_dat_o[28]
*402 wbs_dat_o[29]
*403 wbs_dat_o[2]
*404 wbs_dat_o[30]
*405 wbs_dat_o[31]
*406 wbs_dat_o[3]
*407 wbs_dat_o[4]
*408 wbs_dat_o[5]
*409 wbs_dat_o[6]
*410 wbs_dat_o[7]
*411 wbs_dat_o[8]
*412 wbs_dat_o[9]
*413 wbs_sel_i[0]
*414 wbs_sel_i[1]
*415 wbs_sel_i[2]
*416 wbs_sel_i[3]
*417 wbs_stb_i
*418 wbs_we_i
*419 mprj

*PORTS
io_in[0] I
io_in[10] I
io_in[11] I
io_in[12] I
io_in[13] I
io_in[14] I
io_in[15] I
io_in[16] I
io_in[17] I
io_in[18] I
io_in[19] I
io_in[1] I
io_in[20] I
io_in[21] I
io_in[22] I
io_in[23] I
io_in[24] I
io_in[25] I
io_in[26] I
io_in[27] I
io_in[28] I
io_in[29] I
io_in[2] I
io_in[30] I
io_in[31] I
io_in[32] I
io_in[33] I
io_in[34] I
io_in[35] I
io_in[36] I
io_in[37] I
io_in[3] I
io_in[4] I
io_in[5] I
io_in[6] I
io_in[7] I
io_in[8] I
io_in[9] I
io_oeb[0] O
io_oeb[10] O
io_oeb[11] O
io_oeb[12] O
io_oeb[13] O
io_oeb[14] O
io_oeb[15] O
io_oeb[16] O
io_oeb[17] O
io_oeb[18] O
io_oeb[19] O
io_oeb[1] O
io_oeb[20] O
io_oeb[21] O
io_oeb[22] O
io_oeb[23] O
io_oeb[24] O
io_oeb[25] O
io_oeb[26] O
io_oeb[27] O
io_oeb[28] O
io_oeb[29] O
io_oeb[2] O
io_oeb[30] O
io_oeb[31] O
io_oeb[32] O
io_oeb[33] O
io_oeb[34] O
io_oeb[35] O
io_oeb[36] O
io_oeb[37] O
io_oeb[3] O
io_oeb[4] O
io_oeb[5] O
io_oeb[6] O
io_oeb[7] O
io_oeb[8] O
io_oeb[9] O
io_out[0] O
io_out[10] O
io_out[11] O
io_out[12] O
io_out[13] O
io_out[14] O
io_out[15] O
io_out[16] O
io_out[17] O
io_out[18] O
io_out[19] O
io_out[1] O
io_out[20] O
io_out[21] O
io_out[22] O
io_out[23] O
io_out[24] O
io_out[25] O
io_out[26] O
io_out[27] O
io_out[28] O
io_out[29] O
io_out[2] O
io_out[30] O
io_out[31] O
io_out[32] O
io_out[33] O
io_out[34] O
io_out[35] O
io_out[36] O
io_out[37] O
io_out[3] O
io_out[4] O
io_out[5] O
io_out[6] O
io_out[7] O
io_out[8] O
io_out[9] O
la_data_in[0] I
la_data_in[10] I
la_data_in[11] I
la_data_in[12] I
la_data_in[13] I
la_data_in[14] I
la_data_in[15] I
la_data_in[16] I
la_data_in[17] I
la_data_in[18] I
la_data_in[19] I
la_data_in[1] I
la_data_in[20] I
la_data_in[21] I
la_data_in[22] I
la_data_in[23] I
la_data_in[24] I
la_data_in[25] I
la_data_in[26] I
la_data_in[27] I
la_data_in[28] I
la_data_in[29] I
la_data_in[2] I
la_data_in[30] I
la_data_in[31] I
la_data_in[32] I
la_data_in[33] I
la_data_in[34] I
la_data_in[35] I
la_data_in[36] I
la_data_in[37] I
la_data_in[38] I
la_data_in[39] I
la_data_in[3] I
la_data_in[40] I
la_data_in[41] I
la_data_in[42] I
la_data_in[43] I
la_data_in[44] I
la_data_in[45] I
la_data_in[46] I
la_data_in[47] I
la_data_in[48] I
la_data_in[49] I
la_data_in[4] I
la_data_in[50] I
la_data_in[51] I
la_data_in[52] I
la_data_in[53] I
la_data_in[54] I
la_data_in[55] I
la_data_in[56] I
la_data_in[57] I
la_data_in[58] I
la_data_in[59] I
la_data_in[5] I
la_data_in[60] I
la_data_in[61] I
la_data_in[62] I
la_data_in[63] I
la_data_in[6] I
la_data_in[7] I
la_data_in[8] I
la_data_in[9] I
la_data_out[0] O
la_data_out[10] O
la_data_out[11] O
la_data_out[12] O
la_data_out[13] O
la_data_out[14] O
la_data_out[15] O
la_data_out[16] O
la_data_out[17] O
la_data_out[18] O
la_data_out[19] O
la_data_out[1] O
la_data_out[20] O
la_data_out[21] O
la_data_out[22] O
la_data_out[23] O
la_data_out[24] O
la_data_out[25] O
la_data_out[26] O
la_data_out[27] O
la_data_out[28] O
la_data_out[29] O
la_data_out[2] O
la_data_out[30] O
la_data_out[31] O
la_data_out[32] O
la_data_out[33] O
la_data_out[34] O
la_data_out[35] O
la_data_out[36] O
la_data_out[37] O
la_data_out[38] O
la_data_out[39] O
la_data_out[3] O
la_data_out[40] O
la_data_out[41] O
la_data_out[42] O
la_data_out[43] O
la_data_out[44] O
la_data_out[45] O
la_data_out[46] O
la_data_out[47] O
la_data_out[48] O
la_data_out[49] O
la_data_out[4] O
la_data_out[50] O
la_data_out[51] O
la_data_out[52] O
la_data_out[53] O
la_data_out[54] O
la_data_out[55] O
la_data_out[56] O
la_data_out[57] O
la_data_out[58] O
la_data_out[59] O
la_data_out[5] O
la_data_out[60] O
la_data_out[61] O
la_data_out[62] O
la_data_out[63] O
la_data_out[6] O
la_data_out[7] O
la_data_out[8] O
la_data_out[9] O
la_oenb[0] I
la_oenb[10] I
la_oenb[11] I
la_oenb[12] I
la_oenb[13] I
la_oenb[14] I
la_oenb[15] I
la_oenb[16] I
la_oenb[17] I
la_oenb[18] I
la_oenb[19] I
la_oenb[1] I
la_oenb[20] I
la_oenb[21] I
la_oenb[22] I
la_oenb[23] I
la_oenb[24] I
la_oenb[25] I
la_oenb[26] I
la_oenb[27] I
la_oenb[28] I
la_oenb[29] I
la_oenb[2] I
la_oenb[30] I
la_oenb[31] I
la_oenb[32] I
la_oenb[33] I
la_oenb[34] I
la_oenb[35] I
la_oenb[36] I
la_oenb[37] I
la_oenb[38] I
la_oenb[39] I
la_oenb[3] I
la_oenb[40] I
la_oenb[41] I
la_oenb[42] I
la_oenb[43] I
la_oenb[44] I
la_oenb[45] I
la_oenb[46] I
la_oenb[47] I
la_oenb[48] I
la_oenb[49] I
la_oenb[4] I
la_oenb[50] I
la_oenb[51] I
la_oenb[52] I
la_oenb[53] I
la_oenb[54] I
la_oenb[55] I
la_oenb[56] I
la_oenb[57] I
la_oenb[58] I
la_oenb[59] I
la_oenb[5] I
la_oenb[60] I
la_oenb[61] I
la_oenb[62] I
la_oenb[63] I
la_oenb[6] I
la_oenb[7] I
la_oenb[8] I
la_oenb[9] I
user_clock2 I
user_irq[0] O
user_irq[1] O
user_irq[2] O
wb_clk_i I
wb_rst_i I
wbs_ack_o O
wbs_adr_i[0] I
wbs_adr_i[10] I
wbs_adr_i[11] I
wbs_adr_i[12] I
wbs_adr_i[13] I
wbs_adr_i[14] I
wbs_adr_i[15] I
wbs_adr_i[16] I
wbs_adr_i[17] I
wbs_adr_i[18] I
wbs_adr_i[19] I
wbs_adr_i[1] I
wbs_adr_i[20] I
wbs_adr_i[21] I
wbs_adr_i[22] I
wbs_adr_i[23] I
wbs_adr_i[24] I
wbs_adr_i[25] I
wbs_adr_i[26] I
wbs_adr_i[27] I
wbs_adr_i[28] I
wbs_adr_i[29] I
wbs_adr_i[2] I
wbs_adr_i[30] I
wbs_adr_i[31] I
wbs_adr_i[3] I
wbs_adr_i[4] I
wbs_adr_i[5] I
wbs_adr_i[6] I
wbs_adr_i[7] I
wbs_adr_i[8] I
wbs_adr_i[9] I
wbs_cyc_i I
wbs_dat_i[0] I
wbs_dat_i[10] I
wbs_dat_i[11] I
wbs_dat_i[12] I
wbs_dat_i[13] I
wbs_dat_i[14] I
wbs_dat_i[15] I
wbs_dat_i[16] I
wbs_dat_i[17] I
wbs_dat_i[18] I
wbs_dat_i[19] I
wbs_dat_i[1] I
wbs_dat_i[20] I
wbs_dat_i[21] I
wbs_dat_i[22] I
wbs_dat_i[23] I
wbs_dat_i[24] I
wbs_dat_i[25] I
wbs_dat_i[26] I
wbs_dat_i[27] I
wbs_dat_i[28] I
wbs_dat_i[29] I
wbs_dat_i[2] I
wbs_dat_i[30] I
wbs_dat_i[31] I
wbs_dat_i[3] I
wbs_dat_i[4] I
wbs_dat_i[5] I
wbs_dat_i[6] I
wbs_dat_i[7] I
wbs_dat_i[8] I
wbs_dat_i[9] I
wbs_dat_o[0] O
wbs_dat_o[10] O
wbs_dat_o[11] O
wbs_dat_o[12] O
wbs_dat_o[13] O
wbs_dat_o[14] O
wbs_dat_o[15] O
wbs_dat_o[16] O
wbs_dat_o[17] O
wbs_dat_o[18] O
wbs_dat_o[19] O
wbs_dat_o[1] O
wbs_dat_o[20] O
wbs_dat_o[21] O
wbs_dat_o[22] O
wbs_dat_o[23] O
wbs_dat_o[24] O
wbs_dat_o[25] O
wbs_dat_o[26] O
wbs_dat_o[27] O
wbs_dat_o[28] O
wbs_dat_o[29] O
wbs_dat_o[2] O
wbs_dat_o[30] O
wbs_dat_o[31] O
wbs_dat_o[3] O
wbs_dat_o[4] O
wbs_dat_o[5] O
wbs_dat_o[6] O
wbs_dat_o[7] O
wbs_dat_o[8] O
wbs_dat_o[9] O
wbs_sel_i[0] I
wbs_sel_i[1] I
wbs_sel_i[2] I
wbs_sel_i[3] I
wbs_stb_i I
wbs_we_i I

*D_NET *2 0.0833063
*CONN
*P io_in[10] I
*I *419:io_in[5] I *D user_proj_example
*CAP
1 io_in[10] 0.00617092
2 *419:io_in[5] 0.000978156
3 *2:9 0.0354822
4 *2:7 0.0345041
5 *2:5 0.00617092
*RES
1 io_in[10] *2:5 48.825 
2 *2:5 *2:7 4.5 
3 *2:7 *2:9 282.33 
4 *2:9 *419:io_in[5] 11.565 
*END

*D_NET *3 0.202476
*CONN
*P io_in[11] I
*I *419:io_in[6] I *D user_proj_example
*CAP
1 io_in[11] 0.00106911
2 *419:io_in[6] 0.00611403
3 *3:11 0.00611403
4 *3:9 0.00842366
5 *3:7 0.00949277
6 *3:9 *6:27 0.111336
7 *3:9 *38:9 0.0599266
*RES
1 io_in[11] *3:7 12.465 
2 *3:7 *3:9 275.85 
3 *3:9 *3:11 4.5 
4 *3:11 *419:io_in[6] 47.925 
*END

*D_NET *4 0.080348
*CONN
*P io_in[12] I
*I *419:io_in[7] I *D user_proj_example
*CAP
1 io_in[12] 0.0054897
2 *419:io_in[7] 0.00167677
3 *4:9 0.0346843
4 *4:7 0.0384972
*RES
1 io_in[12] *4:7 47.925 
2 *4:7 *4:9 269.37 
3 *4:9 *419:io_in[7] 16.965 
*END

*D_NET *5 0.419493
*CONN
*P io_in[13] I
*I *419:io_oeb[0] O *D user_proj_example
*I *419:io_out[0] O *D user_proj_example
*CAP
1 io_in[13] 0.0011292
2 *419:io_oeb[0] 0.000665271
3 *419:io_out[0] 0.00523073
4 *5:25 0.0511793
5 *5:23 0.0555517
6 *5:11 0.0113976
7 *5:11 *34:9 0
8 *5:25 *6:27 0.28527
9 *5:25 *35:9 0.00906876
*RES
1 *419:io_out[0] *5:11 36.855 
2 *5:11 *419:io_oeb[0] 4.455 
3 *5:11 *5:23 49.05 
4 *5:23 *5:25 776.43 
5 *5:25 io_in[13] 12.825 
*END

*D_NET *6 0.569888
*CONN
*P io_in[14] I
*I *419:io_oeb[1] O *D user_proj_example
*I *419:io_out[1] O *D user_proj_example
*CAP
1 io_in[14] 0.00131687
2 *419:io_oeb[1] 0.000554421
3 *419:io_out[1] 0.00502033
4 *6:27 0.0186253
5 *6:25 0.0228438
6 *6:21 0.00580456
7 *6:9 0.00584398
8 *6:9 *34:9 0
9 *6:21 *34:9 0
10 *6:27 *35:9 0.105084
11 *6:27 *38:9 0.00818865
12 *3:9 *6:27 0.111336
13 *5:25 *6:27 0.28527
*RES
1 *419:io_out[1] *6:9 31.095 
2 *6:9 *419:io_oeb[1] 7.605 
3 *6:9 *6:21 5.85 
4 *6:21 *6:25 49.23 
5 *6:25 *6:27 769.95 
6 *6:27 io_in[14] 12.645 
*END

*D_NET *7 0.212388
*CONN
*P io_in[15] I
*I *419:io_oeb[2] O *D user_proj_example
*I *419:io_out[2] O *D user_proj_example
*CAP
1 io_in[15] 0.0976484
2 *419:io_oeb[2] 0.00049875
3 *419:io_out[2] 0.00357709
4 *7:25 0.102118
5 *7:9 0.00854569
*RES
1 *419:io_out[2] *7:9 31.095 
2 *7:9 *419:io_oeb[2] 7.605 
3 *7:9 *7:25 45.54 
4 *7:25 io_in[15] 753.525 
*END

*D_NET *8 0.193905
*CONN
*P io_in[16] I
*I *419:io_oeb[3] O *D user_proj_example
*I *419:io_out[3] O *D user_proj_example
*CAP
1 io_in[16] 0.00099089
2 *419:io_oeb[3] 0.0132958
3 *419:io_out[3] 0.0041398
4 *8:29 0.0836362
5 *8:27 0.0918013
6 io_in[16] *10:23 4.09163e-05
*RES
1 *419:io_out[3] *419:io_oeb[3] 39.42 
2 *419:io_oeb[3] *8:27 44.4149 
3 *8:27 *8:29 675.145 
4 *8:29 io_in[16] 16.695 
*END

*D_NET *9 0.196068
*CONN
*P io_in[17] I
*I *419:io_oeb[4] O *D user_proj_example
*I *419:io_out[4] O *D user_proj_example
*CAP
1 io_in[17] 0.00108428
2 *419:io_oeb[4] 0.00448646
3 *419:io_out[4] 0.00414542
4 *9:29 0.0750949
5 *9:27 0.0740106
6 *9:25 0.0183911
7 *9:23 0.0187321
8 io_in[17] *10:23 0.000123048
*RES
1 *419:io_out[4] *419:io_oeb[4] 39.24 
2 *419:io_oeb[4] *9:23 11.6968 
3 *9:23 *9:25 73.0636 
4 *9:25 *9:27 4.5 
5 *9:27 *9:29 604.848 
6 *9:29 io_in[17] 17.775 
*END

*D_NET *10 0.42864
*CONN
*P io_in[18] I
*I *419:io_oeb[5] O *D user_proj_example
*I *419:io_out[5] O *D user_proj_example
*CAP
1 io_in[18] 0.0010294
2 *419:io_oeb[5] 0.000503593
3 *419:io_out[5] 0.00357709
4 *10:23 0.0190015
5 *10:21 0.0179721
6 *10:19 0.0379556
7 *10:9 0.0420363
8 *10:19 *11:9 0.00921874
9 *10:19 *11:19 0.183215
10 *10:23 *11:23 0.113966
11 io_in[16] *10:23 4.09163e-05
12 io_in[17] *10:23 0.000123048
*RES
1 *419:io_out[5] *10:9 31.095 
2 *10:9 *419:io_oeb[5] 7.605 
3 *10:9 *10:19 536.31 
4 *10:19 *10:21 4.5 
5 *10:21 *10:23 283.77 
6 *10:23 io_in[18] 12.465 
*END

*D_NET *11 0.656704
*CONN
*P io_in[19] I
*I *419:io_oeb[6] O *D user_proj_example
*I *419:io_out[6] O *D user_proj_example
*CAP
1 io_in[19] 0.0010524
2 *419:io_oeb[6] 0.000542343
3 *419:io_out[6] 0.00209001
4 *11:23 0.00849289
5 *11:21 0.0074405
6 *11:19 0.00323757
7 *11:9 0.00586993
8 *11:19 *13:9 0.00923375
9 *11:19 *13:19 0.155555
10 *11:23 *13:23 0.15679
11 *10:19 *11:9 0.00921874
12 *10:19 *11:19 0.183215
13 *10:23 *11:23 0.113966
*RES
1 *419:io_out[6] *11:9 31.275 
2 *11:9 *419:io_oeb[6] 7.785 
3 *11:9 *11:19 465.93 
4 *11:19 *11:21 4.5 
5 *11:21 *11:23 390.33 
6 *11:23 io_in[19] 12.645 
*END

*D_NET *13 0.45676
*CONN
*P io_in[20] I
*I *419:io_oeb[7] O *D user_proj_example
*I *419:io_out[7] O *D user_proj_example
*CAP
1 io_in[20] 0.00107539
2 *419:io_oeb[7] 0.000581092
3 *419:io_out[7] 0.00211686
4 *13:23 0.0392045
5 *13:21 0.0381291
6 *13:19 0.0256882
7 *13:9 0.0283862
8 *11:19 *13:9 0.00923375
9 *11:19 *13:19 0.155555
10 *11:23 *13:23 0.15679
*RES
1 *419:io_out[7] *13:9 31.455 
2 *13:9 *419:io_oeb[7] 7.965 
3 *13:9 *13:19 395.55 
4 *13:19 *13:21 4.5 
5 *13:21 *13:23 496.89 
6 *13:23 io_in[20] 12.825 
*END

*D_NET *14 0.183313
*CONN
*P io_in[21] I
*I *419:io_oeb[8] O *D user_proj_example
*I *419:io_out[8] O *D user_proj_example
*CAP
1 io_in[21] 0.001145
2 *419:io_oeb[8] 0.00262359
3 *419:io_out[8] 0.00276954
4 *14:37 0.0502561
5 *14:35 0.0491111
6 *14:33 0.031962
7 *14:31 0.032108
8 *419:io_oeb[8] *15:19 0.0133381
*RES
1 *419:io_out[8] *419:io_oeb[8] 45 
2 *419:io_out[8] *14:31 9.99964 
3 *14:31 *14:33 126.136 
4 *14:33 *14:35 4.5 
5 *14:35 *14:37 401.48 
6 *14:37 io_in[21] 17.775 
*END

*D_NET *15 0.191157
*CONN
*P io_in[22] I
*I *419:io_oeb[9] O *D user_proj_example
*I *419:io_out[9] O *D user_proj_example
*CAP
1 io_in[22] 0.00107539
2 *419:io_oeb[9] 0.00472875
3 *419:io_out[9] 0.000275657
4 *15:23 0.0251851
5 *15:21 0.0241097
6 *15:19 0.0587199
7 *15:7 0.0637243
8 *15:23 io_in[23] 0
9 *419:io_oeb[8] *15:19 0.0133381
*RES
1 *419:io_out[9] *15:7 5.625 
2 *15:7 *419:io_oeb[9] 40.995 
3 *15:7 *15:19 469.71 
4 *15:19 *15:21 4.5 
5 *15:21 *15:23 193.41 
6 *15:23 io_in[22] 12.825 
*END

*D_NET *16 0.163101
*CONN
*P io_in[23] I
*I *419:io_oeb[10] O *D user_proj_example
*I *419:io_out[10] O *D user_proj_example
*CAP
1 io_in[23] 0.0012033
2 *419:io_oeb[10] 0.00458829
3 *419:io_out[10] 0.013957
4 *16:33 0.0675934
5 *16:31 0.0663901
6 *16:29 0.0093687
7 *15:23 io_in[23] 0
*RES
1 *419:io_out[10] *419:io_oeb[10] 44.46 
2 *419:io_out[10] *16:29 45.883 
3 *16:29 *16:31 4.5 
4 *16:31 *16:33 542.362 
5 *16:33 io_in[23] 18.315 
*END

*D_NET *17 0.312819
*CONN
*P io_in[24] I
*I *419:io_oeb[11] O *D user_proj_example
*I *419:io_out[11] O *D user_proj_example
*CAP
1 io_in[24] 0.000704204
2 *419:io_oeb[11] 0.00438475
3 *419:io_out[11] 0
4 *17:21 0.0426608
5 *17:19 0.0426117
6 *17:4 0.00503982
7 *17:21 *18:25 0.217418
*RES
1 *419:io_out[11] *17:4 4.5 
2 *17:4 *419:io_oeb[11] 39.87 
3 *17:4 *17:19 11.2809 
4 *17:19 *17:21 606.288 
5 *17:21 io_in[24] 10.125 
*END

*D_NET *18 0.454232
*CONN
*P io_in[25] I
*I *419:io_oeb[12] O *D user_proj_example
*I *419:io_out[12] O *D user_proj_example
*CAP
1 io_in[25] 0.000682624
2 *419:io_oeb[12] 0.00436639
3 *419:io_out[12] 8.87554e-05
4 *18:25 0.01083
5 *18:23 0.0112514
6 *18:6 0.00555914
7 *18:25 *19:27 0.0129266
8 *18:25 *20:21 0.191109
9 *17:21 *18:25 0.217418
*RES
1 *419:io_out[12] *18:6 4.9725 
2 *18:6 *419:io_oeb[12] 40.5675 
3 *18:6 *18:23 10.5109 
4 *18:23 *18:25 609.412 
5 *18:25 io_in[25] 9.945 
*END

*D_NET *19 0.454944
*CONN
*P io_in[26] I
*I *419:io_oeb[13] O *D user_proj_example
*I *419:io_out[13] O *D user_proj_example
*CAP
1 io_in[26] 0.000639466
2 *419:io_oeb[13] 0.00434398
3 *419:io_out[13] 0.00498003
4 *19:27 0.0105539
5 *19:25 0.0105505
6 *19:27 *20:21 0.219196
7 *19:27 *21:21 0.191754
8 *18:25 *19:27 0.0129266
*RES
1 *419:io_out[13] *419:io_oeb[13] 44.37 
2 *419:io_out[13] *19:25 16.5971 
3 *19:25 *19:27 610.801 
4 *19:27 io_in[26] 9.585 
*END

*D_NET *20 0.455632
*CONN
*P io_in[27] I
*I *419:io_oeb[14] O *D user_proj_example
*I *419:io_out[14] O *D user_proj_example
*CAP
1 io_in[27] 0.00083561
2 *419:io_oeb[14] 0.00436713
3 *419:io_out[14] 0
4 *20:21 0.0110227
5 *20:19 0.0107163
6 *20:4 0.00489632
7 *20:21 *21:21 0.0134888
8 *18:25 *20:21 0.191109
9 *19:27 *20:21 0.219196
*RES
1 *419:io_out[14] *20:4 4.5 
2 *20:4 *419:io_oeb[14] 39.87 
3 *20:4 *20:19 11.051 
4 *20:19 *20:21 613.925 
5 *20:21 io_in[27] 9.765 
*END

*D_NET *21 0.302176
*CONN
*P io_in[28] I
*I *419:io_oeb[15] O *D user_proj_example
*I *419:io_out[15] O *D user_proj_example
*CAP
1 io_in[28] 0.00076965
2 *419:io_oeb[15] 0.00428553
3 *419:io_out[15] 0
4 *21:21 0.0436949
5 *21:19 0.0434116
6 *21:4 0.0047719
7 *19:27 *21:21 0.191754
8 *20:21 *21:21 0.0134888
*RES
1 *419:io_out[15] *21:4 4.5 
2 *21:4 *419:io_oeb[15] 39.87 
3 *21:4 *21:19 10.8726 
4 *21:19 *21:21 616.471 
5 *21:21 io_in[28] 9.405 
*END

*D_NET *34 0.091742
*CONN
*P io_in[5] I
*I *419:io_in[0] I *D user_proj_example
*CAP
1 io_in[5] 0.00652845
2 *419:io_in[0] 0.000654466
3 *34:9 0.0393426
4 *34:7 0.0386881
5 *34:5 0.00652845
6 *5:11 *34:9 0
7 *6:9 *34:9 0
8 *6:21 *34:9 0
*RES
1 io_in[5] *34:5 51.525 
2 *34:5 *34:7 4.5 
3 *34:7 *34:9 314.73 
4 *34:9 *419:io_in[0] 8.865 
*END

*D_NET *35 0.194919
*CONN
*P io_in[6] I
*I *419:io_in[1] I *D user_proj_example
*CAP
1 io_in[6] 0.00108604
2 *419:io_in[1] 0.00602896
3 *35:11 0.00602896
4 *35:9 0.0135778
5 *35:7 0.0146639
6 *35:9 *38:9 0.0393804
7 *5:25 *35:9 0.00906876
8 *6:27 *35:9 0.105084
*RES
1 io_in[6] *35:7 12.465 
2 *35:7 *35:9 308.25 
3 *35:9 *35:11 4.5 
4 *35:11 *419:io_in[1] 47.925 
*END

*D_NET *36 0.0883827
*CONN
*P io_in[7] I
*I *419:io_in[2] I *D user_proj_example
*CAP
1 io_in[7] 0.00554047
2 *419:io_in[2] 0.00164245
3 *36:9 0.0386509
4 *36:7 0.0425489
*RES
1 io_in[7] *36:7 47.925 
2 *36:7 *36:9 301.77 
3 *36:9 *419:io_in[2] 16.965 
*END

*D_NET *37 0.0866389
*CONN
*P io_in[8] I
*I *419:io_in[3] I *D user_proj_example
*CAP
1 io_in[8] 0.00519987
2 *419:io_in[3] 0.00198305
3 *37:9 0.0381196
4 *37:7 0.0413364
*RES
1 io_in[8] *37:7 45.225 
2 *37:7 *37:9 295.29 
3 *37:9 *419:io_in[3] 19.665 
*END

*D_NET *38 0.161425
*CONN
*P io_in[9] I
*I *419:io_in[4] I *D user_proj_example
*CAP
1 io_in[9] 0.00126197
2 *419:io_in[4] 0.00757964
3 *38:11 0.00757964
4 *38:9 0.0181231
5 *38:7 0.019385
6 *3:9 *38:9 0.0599266
7 *6:27 *38:9 0.00818865
8 *35:9 *38:9 0.0393804
*RES
1 io_in[9] *38:7 12.285 
2 *38:7 *38:9 288.81 
3 *38:9 *38:11 4.5 
4 *38:11 *419:io_in[4] 48.105 
*END

*D_NET *313 0.109224
*CONN
*P wb_clk_i I
*I *419:wb_clk_i I *D user_proj_example
*CAP
1 wb_clk_i 0.000149933
2 *419:wb_clk_i 0.000390056
3 *313:13 0.013274
4 *313:11 0.0130339
5 *313:13 *314:13 0.0823765
*RES
1 wb_clk_i *313:11 5.805 
2 *313:11 *313:13 206.55 
3 *313:13 *419:wb_clk_i 7.335 
*END

*D_NET *314 0.218409
*CONN
*P wb_rst_i I
*I *419:wb_rst_i I *D user_proj_example
*CAP
1 wb_rst_i 0.00012694
2 *419:wb_rst_i 0.000351104
3 *314:13 0.0678895
4 *314:11 0.0676653
5 *313:13 *314:13 0.0823765
*RES
1 wb_rst_i *314:11 5.625 
2 *314:11 *314:13 654.21 
3 *314:13 *419:wb_rst_i 7.155 
*END
