*SPEF "ieee 1481-1999"
*DESIGN "user_proj_example"
*DATE "11:11:11 Fri 11 11, 1111"
*VENDOR "OpenRCX"
*PROGRAM "Parallel Extraction"
*VERSION "1.0"
*DESIGN_FLOW "NAME_SCOPE LOCAL" "PIN_CAP NONE"
*DIVIDER /
*DELIMITER :
*BUS_DELIMITER []
*T_UNIT 1 NS
*C_UNIT 1 PF
*R_UNIT 1 OHM
*L_UNIT 1 HENRY

*NAME_MAP
*1 io_in[0]
*2 io_in[1]
*3 io_in[2]
*4 io_in[3]
*5 io_in[4]
*6 io_in[5]
*7 io_in[6]
*8 io_in[7]
*9 net27
*10 net37
*11 net38
*12 net39
*13 net40
*14 net41
*15 net42
*16 net28
*17 net29
*18 net30
*19 net31
*20 net32
*21 net33
*22 net34
*23 net35
*24 net36
*25 io_out[0]
*26 io_out[10]
*27 io_out[11]
*28 io_out[12]
*29 io_out[13]
*30 io_out[14]
*31 io_out[15]
*32 io_out[1]
*33 io_out[2]
*34 io_out[3]
*35 io_out[4]
*36 io_out[5]
*37 io_out[6]
*38 io_out[7]
*39 io_out[8]
*40 io_out[9]
*43 wb_clk_i
*44 wb_rst_i
*45 _0000_
*46 _0001_
*47 _0002_
*48 _0003_
*49 _0004_
*50 _0005_
*51 _0006_
*52 _0007_
*53 _0008_
*54 _0009_
*55 _0010_
*56 _0011_
*57 _0012_
*58 _0013_
*59 _0014_
*60 _0015_
*61 _0016_
*62 _0017_
*63 _0018_
*64 _0019_
*65 _0020_
*66 _0021_
*67 _0022_
*68 _0023_
*69 _0024_
*70 _0025_
*71 _0026_
*72 _0027_
*73 _0028_
*74 _0029_
*75 _0030_
*76 _0031_
*77 _0032_
*78 _0033_
*79 _0034_
*80 _0035_
*81 _0036_
*82 _0037_
*83 _0038_
*84 _0039_
*85 _0040_
*86 _0041_
*87 _0042_
*88 _0043_
*89 _0044_
*90 _0045_
*91 _0046_
*92 _0047_
*93 _0048_
*94 _0049_
*95 _0050_
*96 _0051_
*97 _0052_
*98 _0053_
*99 _0054_
*100 _0055_
*101 _0056_
*102 _0057_
*103 _0058_
*104 _0059_
*105 _0060_
*106 _0061_
*107 _0062_
*108 _0063_
*109 _0064_
*110 _0065_
*111 _0066_
*112 _0067_
*113 _0068_
*114 _0069_
*115 _0070_
*116 _0071_
*117 _0072_
*118 _0073_
*119 _0074_
*120 _0075_
*121 _0076_
*122 _0077_
*123 _0078_
*124 _0079_
*125 _0080_
*126 _0081_
*127 _0082_
*128 _0083_
*129 _0084_
*130 _0085_
*131 _0086_
*132 _0087_
*133 _0088_
*134 _0089_
*135 _0090_
*136 _0091_
*137 _0092_
*138 _0093_
*139 _0094_
*140 _0095_
*141 _0096_
*142 _0097_
*143 _0098_
*144 _0099_
*145 _0100_
*146 _0101_
*147 _0102_
*148 _0103_
*149 _0104_
*150 _0105_
*151 _0106_
*152 _0107_
*153 _0108_
*154 _0109_
*155 _0110_
*156 _0111_
*157 _0112_
*158 _0113_
*159 _0114_
*160 _0115_
*161 _0116_
*162 _0117_
*163 _0118_
*164 _0119_
*165 _0120_
*166 _0121_
*167 _0122_
*168 _0123_
*169 _0124_
*170 _0125_
*171 _0126_
*172 _0127_
*173 _0128_
*174 _0129_
*175 _0130_
*176 _0131_
*177 _0132_
*178 _0133_
*179 _0134_
*180 _0135_
*181 _0136_
*182 _0137_
*183 _0138_
*184 _0139_
*185 _0140_
*186 _0141_
*187 _0142_
*188 _0143_
*189 _0144_
*190 _0145_
*191 _0146_
*192 _0147_
*193 _0148_
*194 _0149_
*195 _0150_
*196 _0151_
*197 _0152_
*198 _0153_
*199 _0154_
*200 _0155_
*201 _0156_
*202 _0157_
*203 _0158_
*204 _0159_
*205 _0160_
*206 _0161_
*207 _0162_
*208 _0163_
*209 _0164_
*210 _0165_
*211 _0166_
*212 _0167_
*213 _0168_
*214 _0169_
*215 _0170_
*216 _0171_
*217 _0172_
*218 _0173_
*219 _0174_
*220 _0175_
*221 _0176_
*222 _0177_
*223 _0178_
*224 _0179_
*225 _0180_
*226 _0181_
*227 _0182_
*228 _0183_
*229 _0184_
*230 _0185_
*231 _0186_
*232 _0187_
*233 _0188_
*234 _0189_
*235 _0190_
*236 _0191_
*237 _0192_
*238 _0193_
*239 _0194_
*240 _0195_
*241 _0196_
*242 _0197_
*243 _0198_
*244 _0199_
*245 _0200_
*246 _0201_
*247 _0202_
*248 _0203_
*249 _0204_
*250 _0205_
*251 _0206_
*252 _0207_
*253 _0208_
*254 _0209_
*255 _0210_
*256 _0211_
*257 _0212_
*258 _0213_
*259 _0214_
*260 _0215_
*261 _0216_
*262 _0217_
*263 _0218_
*264 _0219_
*265 _0220_
*266 _0221_
*267 _0222_
*268 _0223_
*269 _0224_
*270 _0225_
*271 _0226_
*272 _0227_
*273 _0228_
*274 _0229_
*275 _0230_
*276 _0231_
*277 _0232_
*278 _0233_
*279 _0234_
*280 _0235_
*281 _0236_
*282 _0237_
*283 _0238_
*284 _0239_
*285 _0240_
*286 _0241_
*287 _0242_
*288 _0243_
*289 _0244_
*290 _0245_
*291 _0246_
*292 _0247_
*293 _0248_
*294 _0249_
*295 _0250_
*296 _0251_
*297 _0252_
*298 _0253_
*299 _0254_
*300 _0255_
*301 _0256_
*302 _0257_
*303 _0258_
*304 _0259_
*305 _0260_
*306 _0261_
*307 _0262_
*308 _0263_
*309 _0264_
*310 _0265_
*311 _0266_
*312 _0267_
*313 _0268_
*314 _0269_
*315 _0270_
*316 _0271_
*317 _0272_
*318 _0273_
*319 _0274_
*320 _0275_
*321 _0276_
*322 _0277_
*323 _0278_
*324 _0279_
*325 _0280_
*326 _0281_
*327 _0282_
*328 _0283_
*329 _0284_
*330 _0285_
*331 _0286_
*332 _0287_
*333 _0288_
*334 _0289_
*335 _0290_
*336 _0291_
*337 _0292_
*338 _0293_
*339 _0294_
*340 _0295_
*341 _0296_
*342 _0297_
*343 _0298_
*344 _0299_
*345 _0300_
*346 _0301_
*347 _0302_
*348 _0303_
*349 _0304_
*350 _0305_
*351 _0306_
*352 _0307_
*353 _0308_
*354 _0309_
*355 _0310_
*356 _0311_
*357 _0312_
*358 _0313_
*359 _0314_
*360 _0315_
*361 _0316_
*362 _0317_
*363 _0318_
*364 _0319_
*365 _0320_
*366 _0321_
*367 _0322_
*368 _0323_
*369 _0324_
*370 _0325_
*371 _0326_
*372 _0327_
*373 _0328_
*374 _0329_
*375 _0330_
*376 _0331_
*377 _0332_
*378 _0333_
*379 _0334_
*380 _0335_
*381 _0336_
*382 _0337_
*383 _0338_
*384 _0339_
*385 _0340_
*386 _0341_
*387 _0342_
*388 _0343_
*389 _0344_
*390 _0345_
*391 _0346_
*392 _0347_
*393 _0348_
*394 _0349_
*395 _0350_
*396 _0351_
*397 _0352_
*398 _0353_
*399 _0354_
*400 _0355_
*401 _0356_
*402 _0357_
*403 _0358_
*404 _0359_
*405 _0360_
*406 _0361_
*407 _0362_
*408 _0363_
*409 _0364_
*410 _0365_
*411 _0366_
*412 _0367_
*413 _0368_
*414 _0369_
*415 _0370_
*416 _0371_
*417 _0372_
*418 _0373_
*419 _0374_
*420 _0375_
*421 _0376_
*422 _0377_
*423 _0378_
*424 _0379_
*425 _0380_
*426 _0381_
*427 _0382_
*428 _0383_
*429 _0384_
*430 _0385_
*431 _0386_
*432 _0387_
*433 _0388_
*434 _0389_
*435 _0390_
*436 _0391_
*437 _0392_
*438 _0393_
*439 _0394_
*440 _0395_
*441 _0396_
*442 _0397_
*443 _0398_
*444 _0399_
*445 _0400_
*446 _0401_
*447 _0402_
*448 _0403_
*449 _0404_
*450 _0405_
*451 _0406_
*452 _0407_
*453 _0408_
*454 _0409_
*455 _0410_
*456 _0411_
*457 _0412_
*458 _0413_
*459 _0414_
*460 _0415_
*461 _0416_
*462 _0417_
*463 _0418_
*464 _0419_
*465 _0420_
*466 _0421_
*467 _0422_
*468 _0423_
*469 _0424_
*470 _0425_
*471 _0426_
*472 _0427_
*473 _0428_
*474 _0429_
*475 _0430_
*476 _0431_
*477 _0432_
*478 _0433_
*479 _0434_
*480 _0435_
*481 _0436_
*482 _0437_
*483 _0438_
*484 _0439_
*485 _0440_
*486 _0441_
*487 _0442_
*488 _0443_
*489 _0444_
*490 _0445_
*491 _0446_
*492 _0447_
*493 _0448_
*494 _0449_
*495 _0450_
*496 _0451_
*497 _0452_
*498 _0453_
*499 _0454_
*500 _0455_
*501 _0456_
*502 _0457_
*503 _0458_
*504 _0459_
*505 _0460_
*506 _0461_
*507 _0462_
*508 _0463_
*509 _0464_
*510 _0465_
*511 _0466_
*512 _0467_
*513 _0468_
*514 _0469_
*515 _0470_
*516 _0471_
*517 _0472_
*518 _0473_
*519 _0474_
*520 _0475_
*521 _0476_
*522 _0477_
*523 _0478_
*524 _0479_
*525 _0480_
*526 _0481_
*527 _0482_
*528 _0483_
*529 _0484_
*530 _0485_
*531 _0486_
*532 _0487_
*533 _0488_
*534 _0489_
*535 _0490_
*536 _0491_
*537 _0492_
*538 _0493_
*539 _0494_
*540 _0495_
*541 _0496_
*542 _0497_
*543 _0498_
*544 _0499_
*545 _0500_
*546 _0501_
*547 _0502_
*548 _0503_
*549 _0504_
*550 _0505_
*551 _0506_
*552 _0507_
*553 _0508_
*554 _0509_
*555 _0510_
*556 _0511_
*557 _0512_
*558 _0513_
*559 _0514_
*560 _0515_
*561 _0516_
*562 _0517_
*563 _0518_
*564 _0519_
*565 _0520_
*566 _0521_
*567 _0522_
*568 _0523_
*569 _0524_
*570 _0525_
*571 _0526_
*572 _0527_
*573 _0528_
*574 _0529_
*575 _0530_
*576 _0531_
*577 _0532_
*578 _0533_
*579 _0534_
*580 _0535_
*581 _0536_
*582 _0537_
*583 _0538_
*584 _0539_
*585 _0540_
*586 _0541_
*587 _0542_
*588 _0543_
*589 _0544_
*590 _0545_
*591 _0546_
*592 _0547_
*593 _0548_
*594 _0549_
*595 _0550_
*596 _0551_
*597 _0552_
*598 _0553_
*599 _0554_
*600 _0555_
*601 _0556_
*602 _0557_
*603 _0558_
*604 _0559_
*605 _0560_
*606 _0561_
*607 _0562_
*608 _0563_
*609 _0564_
*610 _0565_
*611 _0566_
*612 _0567_
*613 _0568_
*614 _0569_
*615 _0570_
*616 _0571_
*617 _0572_
*618 _0573_
*619 _0574_
*620 _0575_
*621 _0576_
*622 _0577_
*623 _0578_
*624 _0579_
*625 _0580_
*626 _0581_
*627 _0582_
*628 _0583_
*629 _0584_
*630 _0585_
*631 _0586_
*632 _0587_
*633 _0588_
*634 _0589_
*635 _0590_
*636 _0591_
*637 _0592_
*638 _0593_
*639 _0594_
*640 _0595_
*641 _0596_
*642 _0597_
*643 _0598_
*644 _0599_
*645 _0600_
*646 _0601_
*647 _0602_
*648 _0603_
*649 _0604_
*650 _0605_
*651 _0606_
*652 _0607_
*653 _0608_
*654 _0609_
*655 _0610_
*656 _0611_
*657 _0612_
*658 _0613_
*659 _0614_
*660 _0615_
*661 _0616_
*662 _0617_
*663 _0618_
*664 _0619_
*665 _0620_
*666 _0621_
*667 _0622_
*668 _0623_
*669 _0624_
*670 _0625_
*671 _0626_
*672 _0627_
*673 _0628_
*674 _0629_
*675 _0630_
*676 _0631_
*677 _0632_
*678 _0633_
*679 _0634_
*680 _0635_
*681 _0636_
*682 _0637_
*683 _0638_
*684 _0639_
*685 _0640_
*686 _0641_
*687 _0642_
*688 _0643_
*689 _0644_
*690 _0645_
*691 _0646_
*692 _0647_
*693 _0648_
*694 _0649_
*695 _0650_
*696 _0651_
*697 _0652_
*698 _0653_
*699 _0654_
*700 _0655_
*701 _0656_
*702 _0657_
*703 _0658_
*704 _0659_
*705 _0660_
*706 _0661_
*707 _0662_
*708 _0663_
*709 _0664_
*710 _0665_
*711 _0666_
*712 clknet_0_wb_clk_i
*713 clknet_3_0_0_wb_clk_i
*714 clknet_3_1_0_wb_clk_i
*715 clknet_3_2_0_wb_clk_i
*716 clknet_3_3_0_wb_clk_i
*717 clknet_3_4_0_wb_clk_i
*718 clknet_3_5_0_wb_clk_i
*719 clknet_3_6_0_wb_clk_i
*720 clknet_3_7_0_wb_clk_i
*721 clknet_4_0__leaf_wb_clk_i
*722 clknet_4_10__leaf_wb_clk_i
*723 clknet_4_11__leaf_wb_clk_i
*724 clknet_4_12__leaf_wb_clk_i
*725 clknet_4_13__leaf_wb_clk_i
*726 clknet_4_14__leaf_wb_clk_i
*727 clknet_4_15__leaf_wb_clk_i
*728 clknet_4_1__leaf_wb_clk_i
*729 clknet_4_2__leaf_wb_clk_i
*730 clknet_4_3__leaf_wb_clk_i
*731 clknet_4_4__leaf_wb_clk_i
*732 clknet_4_5__leaf_wb_clk_i
*733 clknet_4_6__leaf_wb_clk_i
*734 clknet_4_7__leaf_wb_clk_i
*735 clknet_4_8__leaf_wb_clk_i
*736 clknet_4_9__leaf_wb_clk_i
*737 net1
*738 net10
*739 net11
*740 net12
*741 net13
*742 net14
*743 net15
*744 net16
*745 net17
*746 net18
*747 net19
*748 net2
*749 net20
*750 net21
*751 net22
*752 net23
*753 net24
*754 net25
*755 net26
*756 net3
*757 net4
*758 net5
*759 net6
*760 net7
*761 net8
*762 net9
*763 the_mips\.alusrca
*764 the_mips\.alusrcb\[0\]
*765 the_mips\.alusrcb\[1\]
*766 the_mips\.cont\.ac\.aluop\[0\]
*767 the_mips\.cont\.ac\.aluop\[1\]
*768 the_mips\.cont\.ac\.funct\[0\]
*769 the_mips\.cont\.ac\.funct\[1\]
*770 the_mips\.cont\.ac\.funct\[2\]
*771 the_mips\.cont\.ac\.funct\[3\]
*772 the_mips\.cont\.ac\.funct\[4\]
*773 the_mips\.cont\.ac\.funct\[5\]
*774 the_mips\.cont\.iord
*775 the_mips\.cont\.memtoreg
*776 the_mips\.cont\.op\[0\]
*777 the_mips\.cont\.op\[1\]
*778 the_mips\.cont\.op\[2\]
*779 the_mips\.cont\.op\[3\]
*780 the_mips\.cont\.op\[4\]
*781 the_mips\.cont\.op\[5\]
*782 the_mips\.cont\.outputlog\.pcsrc\[1\]
*783 the_mips\.cont\.outputlog\.pcwrite
*784 the_mips\.cont\.outputlog\.regdst
*785 the_mips\.cont\.outputlog\.regwrite
*786 the_mips\.cont\.outputlog\.state\[0\]
*787 the_mips\.cont\.outputlog\.state\[1\]
*788 the_mips\.cont\.outputlog\.state\[2\]
*789 the_mips\.cont\.outputlog\.state\[3\]
*790 the_mips\.dp\.a\[0\]
*791 the_mips\.dp\.a\[1\]
*792 the_mips\.dp\.a\[2\]
*793 the_mips\.dp\.a\[3\]
*794 the_mips\.dp\.a\[4\]
*795 the_mips\.dp\.a\[5\]
*796 the_mips\.dp\.a\[6\]
*797 the_mips\.dp\.a\[7\]
*798 the_mips\.dp\.adrmux\.d0\[0\]
*799 the_mips\.dp\.adrmux\.d0\[1\]
*800 the_mips\.dp\.adrmux\.d0\[2\]
*801 the_mips\.dp\.adrmux\.d0\[3\]
*802 the_mips\.dp\.adrmux\.d0\[4\]
*803 the_mips\.dp\.adrmux\.d0\[5\]
*804 the_mips\.dp\.adrmux\.d0\[6\]
*805 the_mips\.dp\.adrmux\.d0\[7\]
*806 the_mips\.dp\.adrmux\.d1\[0\]
*807 the_mips\.dp\.adrmux\.d1\[1\]
*808 the_mips\.dp\.adrmux\.d1\[2\]
*809 the_mips\.dp\.adrmux\.d1\[3\]
*810 the_mips\.dp\.adrmux\.d1\[4\]
*811 the_mips\.dp\.adrmux\.d1\[5\]
*812 the_mips\.dp\.adrmux\.d1\[6\]
*813 the_mips\.dp\.adrmux\.d1\[7\]
*814 the_mips\.dp\.alunit\.result\[0\]
*815 the_mips\.dp\.alunit\.result\[1\]
*816 the_mips\.dp\.alunit\.result\[2\]
*817 the_mips\.dp\.alunit\.result\[3\]
*818 the_mips\.dp\.alunit\.result\[4\]
*819 the_mips\.dp\.alunit\.result\[5\]
*820 the_mips\.dp\.alunit\.result\[6\]
*821 the_mips\.dp\.alunit\.result\[7\]
*822 the_mips\.dp\.data\[0\]
*823 the_mips\.dp\.data\[1\]
*824 the_mips\.dp\.data\[2\]
*825 the_mips\.dp\.data\[3\]
*826 the_mips\.dp\.data\[4\]
*827 the_mips\.dp\.data\[5\]
*828 the_mips\.dp\.data\[6\]
*829 the_mips\.dp\.data\[7\]
*830 the_mips\.dp\.instr\[11\]
*831 the_mips\.dp\.instr\[12\]
*832 the_mips\.dp\.instr\[13\]
*833 the_mips\.dp\.instr\[16\]
*834 the_mips\.dp\.instr\[17\]
*835 the_mips\.dp\.instr\[18\]
*836 the_mips\.dp\.instr\[21\]
*837 the_mips\.dp\.instr\[22\]
*838 the_mips\.dp\.instr\[23\]
*839 the_mips\.dp\.instr\[6\]
*840 the_mips\.dp\.instr\[7\]
*841 the_mips\.dp\.ir0\.en
*842 the_mips\.dp\.ir1\.en
*843 the_mips\.dp\.ir2\.en
*844 the_mips\.dp\.ir3\.en
*845 the_mips\.dp\.rf\.RAM\[0\]\[0\]
*846 the_mips\.dp\.rf\.RAM\[0\]\[1\]
*847 the_mips\.dp\.rf\.RAM\[0\]\[2\]
*848 the_mips\.dp\.rf\.RAM\[0\]\[3\]
*849 the_mips\.dp\.rf\.RAM\[0\]\[4\]
*850 the_mips\.dp\.rf\.RAM\[0\]\[5\]
*851 the_mips\.dp\.rf\.RAM\[0\]\[6\]
*852 the_mips\.dp\.rf\.RAM\[0\]\[7\]
*853 the_mips\.dp\.rf\.RAM\[1\]\[0\]
*854 the_mips\.dp\.rf\.RAM\[1\]\[1\]
*855 the_mips\.dp\.rf\.RAM\[1\]\[2\]
*856 the_mips\.dp\.rf\.RAM\[1\]\[3\]
*857 the_mips\.dp\.rf\.RAM\[1\]\[4\]
*858 the_mips\.dp\.rf\.RAM\[1\]\[5\]
*859 the_mips\.dp\.rf\.RAM\[1\]\[6\]
*860 the_mips\.dp\.rf\.RAM\[1\]\[7\]
*861 the_mips\.dp\.rf\.RAM\[2\]\[0\]
*862 the_mips\.dp\.rf\.RAM\[2\]\[1\]
*863 the_mips\.dp\.rf\.RAM\[2\]\[2\]
*864 the_mips\.dp\.rf\.RAM\[2\]\[3\]
*865 the_mips\.dp\.rf\.RAM\[2\]\[4\]
*866 the_mips\.dp\.rf\.RAM\[2\]\[5\]
*867 the_mips\.dp\.rf\.RAM\[2\]\[6\]
*868 the_mips\.dp\.rf\.RAM\[2\]\[7\]
*869 the_mips\.dp\.rf\.RAM\[3\]\[0\]
*870 the_mips\.dp\.rf\.RAM\[3\]\[1\]
*871 the_mips\.dp\.rf\.RAM\[3\]\[2\]
*872 the_mips\.dp\.rf\.RAM\[3\]\[3\]
*873 the_mips\.dp\.rf\.RAM\[3\]\[4\]
*874 the_mips\.dp\.rf\.RAM\[3\]\[5\]
*875 the_mips\.dp\.rf\.RAM\[3\]\[6\]
*876 the_mips\.dp\.rf\.RAM\[3\]\[7\]
*877 the_mips\.dp\.rf\.RAM\[4\]\[0\]
*878 the_mips\.dp\.rf\.RAM\[4\]\[1\]
*879 the_mips\.dp\.rf\.RAM\[4\]\[2\]
*880 the_mips\.dp\.rf\.RAM\[4\]\[3\]
*881 the_mips\.dp\.rf\.RAM\[4\]\[4\]
*882 the_mips\.dp\.rf\.RAM\[4\]\[5\]
*883 the_mips\.dp\.rf\.RAM\[4\]\[6\]
*884 the_mips\.dp\.rf\.RAM\[4\]\[7\]
*885 the_mips\.dp\.rf\.RAM\[5\]\[0\]
*886 the_mips\.dp\.rf\.RAM\[5\]\[1\]
*887 the_mips\.dp\.rf\.RAM\[5\]\[2\]
*888 the_mips\.dp\.rf\.RAM\[5\]\[3\]
*889 the_mips\.dp\.rf\.RAM\[5\]\[4\]
*890 the_mips\.dp\.rf\.RAM\[5\]\[5\]
*891 the_mips\.dp\.rf\.RAM\[5\]\[6\]
*892 the_mips\.dp\.rf\.RAM\[5\]\[7\]
*893 the_mips\.dp\.rf\.RAM\[6\]\[0\]
*894 the_mips\.dp\.rf\.RAM\[6\]\[1\]
*895 the_mips\.dp\.rf\.RAM\[6\]\[2\]
*896 the_mips\.dp\.rf\.RAM\[6\]\[3\]
*897 the_mips\.dp\.rf\.RAM\[6\]\[4\]
*898 the_mips\.dp\.rf\.RAM\[6\]\[5\]
*899 the_mips\.dp\.rf\.RAM\[6\]\[6\]
*900 the_mips\.dp\.rf\.RAM\[6\]\[7\]
*901 the_mips\.dp\.rf\.RAM\[7\]\[0\]
*902 the_mips\.dp\.rf\.RAM\[7\]\[1\]
*903 the_mips\.dp\.rf\.RAM\[7\]\[2\]
*904 the_mips\.dp\.rf\.RAM\[7\]\[3\]
*905 the_mips\.dp\.rf\.RAM\[7\]\[4\]
*906 the_mips\.dp\.rf\.RAM\[7\]\[5\]
*907 the_mips\.dp\.rf\.RAM\[7\]\[6\]
*908 the_mips\.dp\.rf\.RAM\[7\]\[7\]
*909 ANTENNA_1
*910 ANTENNA_2
*911 ANTENNA__0669__A2
*912 ANTENNA__0671__I
*913 ANTENNA__0674__A2
*914 ANTENNA__0674__A4
*915 ANTENNA__0676__I
*916 ANTENNA__0680__A2
*917 ANTENNA__0687__S
*918 ANTENNA__0688__I
*919 ANTENNA__0689__I
*920 ANTENNA__0691__I
*921 ANTENNA__0692__A1
*922 ANTENNA__0693__I
*923 ANTENNA__0695__I
*924 ANTENNA__0698__A1
*925 ANTENNA__0699__I
*926 ANTENNA__0700__I0
*927 ANTENNA__0700__S
*928 ANTENNA__0702__I
*929 ANTENNA__0703__A1
*930 ANTENNA__0705__A2
*931 ANTENNA__0707__A3
*932 ANTENNA__0710__I0
*933 ANTENNA__0710__S
*934 ANTENNA__0711__I
*935 ANTENNA__0712__I
*936 ANTENNA__0716__A3
*937 ANTENNA__0719__A2
*938 ANTENNA__0721__A1
*939 ANTENNA__0724__I0
*940 ANTENNA__0724__S
*941 ANTENNA__0726__A2
*942 ANTENNA__0727__A2
*943 ANTENNA__0728__A1
*944 ANTENNA__0728__A2
*945 ANTENNA__0730__A1
*946 ANTENNA__0732__S
*947 ANTENNA__0733__A2
*948 ANTENNA__0734__A1
*949 ANTENNA__0734__A2
*950 ANTENNA__0735__A2
*951 ANTENNA__0737__A1
*952 ANTENNA__0743__S
*953 ANTENNA__0744__I1
*954 ANTENNA__0748__A1
*955 ANTENNA__0753__A1
*956 ANTENNA__0753__A2
*957 ANTENNA__0754__A1
*958 ANTENNA__0755__B
*959 ANTENNA__0758__I
*960 ANTENNA__0760__B
*961 ANTENNA__0761__A2
*962 ANTENNA__0761__C
*963 ANTENNA__0762__A1
*964 ANTENNA__0763__A2
*965 ANTENNA__0765__A2
*966 ANTENNA__0766__S
*967 ANTENNA__0767__I0
*968 ANTENNA__0767__S
*969 ANTENNA__0784__B
*970 ANTENNA__0785__A1
*971 ANTENNA__0792__A1
*972 ANTENNA__0793__A1
*973 ANTENNA__0800__A1
*974 ANTENNA__0802__I
*975 ANTENNA__0804__A2
*976 ANTENNA__0807__A1
*977 ANTENNA__0808__A3
*978 ANTENNA__0808__B2
*979 ANTENNA__0809__A1
*980 ANTENNA__0816__A2
*981 ANTENNA__0816__B2
*982 ANTENNA__0817__A1
*983 ANTENNA__0823__A1
*984 ANTENNA__0824__A1
*985 ANTENNA__0826__A1
*986 ANTENNA__0836__A1
*987 ANTENNA__0837__A1
*988 ANTENNA__0846__A1
*989 ANTENNA__0847__C
*990 ANTENNA__0854__I
*991 ANTENNA__0872__A1
*992 ANTENNA__0872__A2
*993 ANTENNA__0874__I
*994 ANTENNA__0875__A2
*995 ANTENNA__0882__A1
*996 ANTENNA__0884__A2
*997 ANTENNA__0901__B1
*998 ANTENNA__0903__B
*999 ANTENNA__0913__I
*1000 ANTENNA__0916__I1
*1001 ANTENNA__0918__I1
*1002 ANTENNA__0919__I
*1003 ANTENNA__0920__I1
*1004 ANTENNA__0921__I
*1005 ANTENNA__0922__I
*1006 ANTENNA__0923__I1
*1007 ANTENNA__0923__S
*1008 ANTENNA__0925__I0
*1009 ANTENNA__0925__I1
*1010 ANTENNA__0925__S
*1011 ANTENNA__0927__I0
*1012 ANTENNA__0927__I1
*1013 ANTENNA__0927__S
*1014 ANTENNA__0929__I0
*1015 ANTENNA__0929__I1
*1016 ANTENNA__0929__S
*1017 ANTENNA__0931__I
*1018 ANTENNA__0934__I0
*1019 ANTENNA__0934__I1
*1020 ANTENNA__0935__I
*1021 ANTENNA__0936__I0
*1022 ANTENNA__0937__I
*1023 ANTENNA__0938__I
*1024 ANTENNA__0942__I
*1025 ANTENNA__0945__I
*1026 ANTENNA__0946__I1
*1027 ANTENNA__0948__I0
*1028 ANTENNA__0949__I
*1029 ANTENNA__0952__I0
*1030 ANTENNA__0953__I
*1031 ANTENNA__0956__I0
*1032 ANTENNA__0958__I1
*1033 ANTENNA__0960__I
*1034 ANTENNA__0961__I0
*1035 ANTENNA__0961__S
*1036 ANTENNA__0963__I
*1037 ANTENNA__0964__I1
*1038 ANTENNA__0964__S
*1039 ANTENNA__0966__I0
*1040 ANTENNA__0966__S
*1041 ANTENNA__0968__S
*1042 ANTENNA__0970__I0
*1043 ANTENNA__0970__S
*1044 ANTENNA__0972__S
*1045 ANTENNA__0974__I0
*1046 ANTENNA__0974__S
*1047 ANTENNA__0976__I1
*1048 ANTENNA__0976__S
*1049 ANTENNA__0979__I
*1050 ANTENNA__0980__I
*1051 ANTENNA__0981__A4
*1052 ANTENNA__0983__S
*1053 ANTENNA__0985__I
*1054 ANTENNA__0986__S
*1055 ANTENNA__0988__I
*1056 ANTENNA__0989__I0
*1057 ANTENNA__0989__S
*1058 ANTENNA__0992__S
*1059 ANTENNA__0996__I0
*1060 ANTENNA__0996__S
*1061 ANTENNA__0999__I0
*1062 ANTENNA__0999__S
*1063 ANTENNA__1002__S
*1064 ANTENNA__1005__S
*1065 ANTENNA__1011__A4
*1066 ANTENNA__1013__S
*1067 ANTENNA__1015__S
*1068 ANTENNA__1017__I0
*1069 ANTENNA__1017__S
*1070 ANTENNA__1019__S
*1071 ANTENNA__1022__I0
*1072 ANTENNA__1022__S
*1073 ANTENNA__1024__I0
*1074 ANTENNA__1024__S
*1075 ANTENNA__1026__S
*1076 ANTENNA__1028__S
*1077 ANTENNA__1033__A1
*1078 ANTENNA__1035__A1
*1079 ANTENNA__1039__A1
*1080 ANTENNA__1040__A1
*1081 ANTENNA__1042__I
*1082 ANTENNA__1046__S
*1083 ANTENNA__1049__A1
*1084 ANTENNA__1051__A1
*1085 ANTENNA__1051__B1
*1086 ANTENNA__1052__I
*1087 ANTENNA__1054__S0
*1088 ANTENNA__1054__S1
*1089 ANTENNA__1055__A1
*1090 ANTENNA__1056__A1
*1091 ANTENNA__1058__S
*1092 ANTENNA__1059__I
*1093 ANTENNA__1060__A2
*1094 ANTENNA__1060__B2
*1095 ANTENNA__1061__S0
*1096 ANTENNA__1061__S1
*1097 ANTENNA__1062__A1
*1098 ANTENNA__1063__A1
*1099 ANTENNA__1064__S
*1100 ANTENNA__1065__A2
*1101 ANTENNA__1065__B2
*1102 ANTENNA__1066__I1
*1103 ANTENNA__1066__S0
*1104 ANTENNA__1066__S1
*1105 ANTENNA__1067__A1
*1106 ANTENNA__1068__A1
*1107 ANTENNA__1069__S
*1108 ANTENNA__1070__A2
*1109 ANTENNA__1070__B2
*1110 ANTENNA__1073__S0
*1111 ANTENNA__1073__S1
*1112 ANTENNA__1074__A1
*1113 ANTENNA__1075__A1
*1114 ANTENNA__1076__I
*1115 ANTENNA__1078__S
*1116 ANTENNA__1079__I
*1117 ANTENNA__1080__A2
*1118 ANTENNA__1082__S0
*1119 ANTENNA__1082__S1
*1120 ANTENNA__1083__A1
*1121 ANTENNA__1085__S
*1122 ANTENNA__1086__A2
*1123 ANTENNA__1087__S0
*1124 ANTENNA__1087__S1
*1125 ANTENNA__1088__A1
*1126 ANTENNA__1090__I1
*1127 ANTENNA__1090__S
*1128 ANTENNA__1091__A2
*1129 ANTENNA__1092__S0
*1130 ANTENNA__1092__S1
*1131 ANTENNA__1093__A1
*1132 ANTENNA__1095__S
*1133 ANTENNA__1096__A2
*1134 ANTENNA__1097__S0
*1135 ANTENNA__1097__S1
*1136 ANTENNA__1098__A1
*1137 ANTENNA__1100__I
*1138 ANTENNA__1101__I
*1139 ANTENNA__1102__I
*1140 ANTENNA__1104__I
*1141 ANTENNA__1105__S
*1142 ANTENNA__1106__I
*1143 ANTENNA__1107__A1
*1144 ANTENNA__1108__I
*1145 ANTENNA__1109__A1
*1146 ANTENNA__1109__B1
*1147 ANTENNA__1110__I
*1148 ANTENNA__1111__I
*1149 ANTENNA__1112__S0
*1150 ANTENNA__1112__S1
*1151 ANTENNA__1113__A1
*1152 ANTENNA__1114__A1
*1153 ANTENNA__1115__I
*1154 ANTENNA__1116__S
*1155 ANTENNA__1117__I
*1156 ANTENNA__1118__A2
*1157 ANTENNA__1118__B2
*1158 ANTENNA__1119__S0
*1159 ANTENNA__1119__S1
*1160 ANTENNA__1120__A1
*1161 ANTENNA__1121__A1
*1162 ANTENNA__1122__S
*1163 ANTENNA__1123__A2
*1164 ANTENNA__1123__B2
*1165 ANTENNA__1124__I1
*1166 ANTENNA__1124__S0
*1167 ANTENNA__1124__S1
*1168 ANTENNA__1125__A1
*1169 ANTENNA__1126__A1
*1170 ANTENNA__1127__S
*1171 ANTENNA__1128__A2
*1172 ANTENNA__1128__B2
*1173 ANTENNA__1129__I
*1174 ANTENNA__1130__I
*1175 ANTENNA__1131__S0
*1176 ANTENNA__1131__S1
*1177 ANTENNA__1132__A1
*1178 ANTENNA__1133__A1
*1179 ANTENNA__1134__I
*1180 ANTENNA__1135__I
*1181 ANTENNA__1136__S
*1182 ANTENNA__1137__I
*1183 ANTENNA__1139__I
*1184 ANTENNA__1140__S0
*1185 ANTENNA__1140__S1
*1186 ANTENNA__1141__A1
*1187 ANTENNA__1143__S
*1188 ANTENNA__1145__S0
*1189 ANTENNA__1145__S1
*1190 ANTENNA__1146__A1
*1191 ANTENNA__1148__I1
*1192 ANTENNA__1148__S
*1193 ANTENNA__1150__S0
*1194 ANTENNA__1150__S1
*1195 ANTENNA__1151__A1
*1196 ANTENNA__1153__S
*1197 ANTENNA__1155__S0
*1198 ANTENNA__1155__S1
*1199 ANTENNA__1156__A1
*1200 ANTENNA__1160__I1
*1201 ANTENNA__1160__S
*1202 ANTENNA__1162__S
*1203 ANTENNA__1164__S
*1204 ANTENNA__1166__I1
*1205 ANTENNA__1166__S
*1206 ANTENNA__1169__I1
*1207 ANTENNA__1169__S
*1208 ANTENNA__1171__S
*1209 ANTENNA__1173__S
*1210 ANTENNA__1175__I1
*1211 ANTENNA__1175__S
*1212 ANTENNA__1177__A2
*1213 ANTENNA__1180__I1
*1214 ANTENNA__1180__S
*1215 ANTENNA__1182__S
*1216 ANTENNA__1184__I0
*1217 ANTENNA__1184__S
*1218 ANTENNA__1186__I1
*1219 ANTENNA__1186__S
*1220 ANTENNA__1189__I1
*1221 ANTENNA__1189__S
*1222 ANTENNA__1191__S
*1223 ANTENNA__1193__S
*1224 ANTENNA__1195__I1
*1225 ANTENNA__1195__S
*1226 ANTENNA__1197__A1
*1227 ANTENNA__1200__S
*1228 ANTENNA__1202__S
*1229 ANTENNA__1204__I0
*1230 ANTENNA__1204__S
*1231 ANTENNA__1206__S
*1232 ANTENNA__1209__I0
*1233 ANTENNA__1209__S
*1234 ANTENNA__1211__I0
*1235 ANTENNA__1211__S
*1236 ANTENNA__1213__S
*1237 ANTENNA__1215__S
*1238 ANTENNA__1219__I1
*1239 ANTENNA__1219__S
*1240 ANTENNA__1221__S
*1241 ANTENNA__1223__S
*1242 ANTENNA__1225__I1
*1243 ANTENNA__1225__S
*1244 ANTENNA__1228__I1
*1245 ANTENNA__1228__S
*1246 ANTENNA__1230__S
*1247 ANTENNA__1232__I0
*1248 ANTENNA__1232__S
*1249 ANTENNA__1234__I1
*1250 ANTENNA__1234__S
*1251 ANTENNA__1238__S
*1252 ANTENNA__1240__S
*1253 ANTENNA__1242__I0
*1254 ANTENNA__1242__S
*1255 ANTENNA__1244__S
*1256 ANTENNA__1247__I0
*1257 ANTENNA__1247__S
*1258 ANTENNA__1249__I0
*1259 ANTENNA__1249__S
*1260 ANTENNA__1251__S
*1261 ANTENNA__1253__S
*1262 ANTENNA__1255__I1
*1263 ANTENNA__1255__S
*1264 ANTENNA__1257__I
*1265 ANTENNA__1258__I
*1266 ANTENNA__1259__A2
*1267 ANTENNA__1261__I1
*1268 ANTENNA__1261__S
*1269 ANTENNA__1263__A2
*1270 ANTENNA__1265__A2
*1271 ANTENNA__1267__A2
*1272 ANTENNA__1270__I
*1273 ANTENNA__1272__A1
*1274 ANTENNA__1275__A1
*1275 ANTENNA__1275__A2
*1276 ANTENNA__1277__A1
*1277 ANTENNA__1279__A1
*1278 ANTENNA__1281__A1
*1279 ANTENNA__1282__A2
*1280 ANTENNA__1283__A1
*1281 ANTENNA__1283__A2
*1282 ANTENNA__1284__A2
*1283 ANTENNA__1285__A1
*1284 ANTENNA__1285__A2
*1285 ANTENNA__1286__A2
*1286 ANTENNA__1287__I1
*1287 ANTENNA__1287__S
*1288 ANTENNA__1289__I1
*1289 ANTENNA__1291__I0
*1290 ANTENNA__1291__I1
*1291 ANTENNA__1293__I1
*1292 ANTENNA__1296__A1
*1293 ANTENNA__1296__A2
*1294 ANTENNA__1297__A2
*1295 ANTENNA__1299__I0
*1296 ANTENNA__1299__I1
*1297 ANTENNA__1299__S
*1298 ANTENNA__1301__I0
*1299 ANTENNA__1301__I1
*1300 ANTENNA__1301__S
*1301 ANTENNA__1303__A1
*1302 ANTENNA__1303__A2
*1303 ANTENNA__1304__A2
*1304 ANTENNA__1305__I0
*1305 ANTENNA__1305__I1
*1306 ANTENNA__1305__S
*1307 ANTENNA__1307__I0
*1308 ANTENNA__1307__I1
*1309 ANTENNA__1307__S
*1310 ANTENNA__1309__A1
*1311 ANTENNA__1310__A3
*1312 ANTENNA__1312__A1
*1313 ANTENNA__1312__A2
*1314 ANTENNA__1312__B
*1315 ANTENNA__1313__I
*1316 ANTENNA__1315__A2
*1317 ANTENNA__1317__A1
*1318 ANTENNA__1319__B2
*1319 ANTENNA__1320__I
*1320 ANTENNA__1321__A2
*1321 ANTENNA__1322__A1
*1322 ANTENNA__1322__C
*1323 ANTENNA__1323__A1
*1324 ANTENNA__1324__A2
*1325 ANTENNA__1325__A1
*1326 ANTENNA__1325__C
*1327 ANTENNA__1326__I
*1328 ANTENNA__1327__I
*1329 ANTENNA__1328__B1
*1330 ANTENNA__1329__I
*1331 ANTENNA__1330__I
*1332 ANTENNA__1333__B1
*1333 ANTENNA__1338__A1
*1334 ANTENNA__1338__B1
*1335 ANTENNA__1338__C1
*1336 ANTENNA__1341__A1
*1337 ANTENNA__1341__B1
*1338 ANTENNA__1341__C1
*1339 ANTENNA__1342__A1
*1340 ANTENNA__1344__A1
*1341 ANTENNA__1344__A2
*1342 ANTENNA__1344__B1
*1343 ANTENNA__1344__C1
*1344 ANTENNA__1344__C2
*1345 ANTENNA__1345__A1
*1346 ANTENNA__1345__A2
*1347 ANTENNA__1345__B
*1348 ANTENNA__1346__A1
*1349 ANTENNA__1347__A1
*1350 ANTENNA__1347__A2
*1351 ANTENNA__1347__B1
*1352 ANTENNA__1347__C1
*1353 ANTENNA__1347__C2
*1354 ANTENNA__1348__A1
*1355 ANTENNA__1348__A2
*1356 ANTENNA__1348__B
*1357 ANTENNA__1349__A1
*1358 ANTENNA__1350__CLK
*1359 ANTENNA__1351__CLK
*1360 ANTENNA__1352__CLK
*1361 ANTENNA__1353__CLK
*1362 ANTENNA__1355__CLK
*1363 ANTENNA__1356__CLK
*1364 ANTENNA__1358__CLK
*1365 ANTENNA__1359__CLK
*1366 ANTENNA__1360__CLK
*1367 ANTENNA__1361__CLK
*1368 ANTENNA__1366__CLK
*1369 ANTENNA__1367__CLK
*1370 ANTENNA__1368__CLK
*1371 ANTENNA__1369__CLK
*1372 ANTENNA__1370__CLK
*1373 ANTENNA__1371__CLK
*1374 ANTENNA__1372__CLK
*1375 ANTENNA__1373__CLK
*1376 ANTENNA__1374__CLK
*1377 ANTENNA__1375__CLK
*1378 ANTENNA__1376__CLK
*1379 ANTENNA__1377__CLK
*1380 ANTENNA__1378__CLK
*1381 ANTENNA__1379__CLK
*1382 ANTENNA__1380__CLK
*1383 ANTENNA__1381__CLK
*1384 ANTENNA__1383__CLK
*1385 ANTENNA__1384__CLK
*1386 ANTENNA__1385__CLK
*1387 ANTENNA__1386__CLK
*1388 ANTENNA__1387__CLK
*1389 ANTENNA__1388__CLK
*1390 ANTENNA__1389__CLK
*1391 ANTENNA__1390__CLK
*1392 ANTENNA__1391__CLK
*1393 ANTENNA__1391__D
*1394 ANTENNA__1392__CLK
*1395 ANTENNA__1397__CLK
*1396 ANTENNA__1398__CLK
*1397 ANTENNA__1399__CLK
*1398 ANTENNA__1400__CLK
*1399 ANTENNA__1401__CLK
*1400 ANTENNA__1402__CLK
*1401 ANTENNA__1403__CLK
*1402 ANTENNA__1405__CLK
*1403 ANTENNA__1406__CLK
*1404 ANTENNA__1407__CLK
*1405 ANTENNA__1408__CLK
*1406 ANTENNA__1409__CLK
*1407 ANTENNA__1410__CLK
*1408 ANTENNA__1411__CLK
*1409 ANTENNA__1412__CLK
*1410 ANTENNA__1413__CLK
*1411 ANTENNA__1414__CLK
*1412 ANTENNA__1415__CLK
*1413 ANTENNA__1416__CLK
*1414 ANTENNA__1417__CLK
*1415 ANTENNA__1418__CLK
*1416 ANTENNA__1419__CLK
*1417 ANTENNA__1420__CLK
*1418 ANTENNA__1421__CLK
*1419 ANTENNA__1422__CLK
*1420 ANTENNA__1423__CLK
*1421 ANTENNA__1424__CLK
*1422 ANTENNA__1425__CLK
*1423 ANTENNA__1426__CLK
*1424 ANTENNA__1427__CLK
*1425 ANTENNA__1428__CLK
*1426 ANTENNA__1429__CLK
*1427 ANTENNA__1430__CLK
*1428 ANTENNA__1431__CLK
*1429 ANTENNA__1432__CLK
*1430 ANTENNA__1433__CLK
*1431 ANTENNA__1435__CLK
*1432 ANTENNA__1436__CLK
*1433 ANTENNA__1437__CLK
*1434 ANTENNA__1438__CLK
*1435 ANTENNA__1439__CLK
*1436 ANTENNA__1440__CLK
*1437 ANTENNA__1441__CLK
*1438 ANTENNA__1443__CLK
*1439 ANTENNA__1444__CLK
*1440 ANTENNA__1445__CLK
*1441 ANTENNA__1445__D
*1442 ANTENNA__1446__CLK
*1443 ANTENNA__1446__D
*1444 ANTENNA__1447__CLK
*1445 ANTENNA__1447__D
*1446 ANTENNA__1448__CLK
*1447 ANTENNA__1448__D
*1448 ANTENNA__1449__D
*1449 ANTENNA__1450__D
*1450 ANTENNA__1451__D
*1451 ANTENNA__1452__D
*1452 ANTENNA__1453__CLK
*1453 ANTENNA__1453__D
*1454 ANTENNA__1454__CLK
*1455 ANTENNA__1455__CLK
*1456 ANTENNA__1456__CLK
*1457 ANTENNA__1457__CLK
*1458 ANTENNA__1458__CLK
*1459 ANTENNA__1459__CLK
*1460 ANTENNA__1460__CLK
*1461 ANTENNA__1461__CLK
*1462 ANTENNA__1462__CLK
*1463 ANTENNA__1463__CLK
*1464 ANTENNA__1463__D
*1465 ANTENNA__1464__CLK
*1466 ANTENNA__1465__CLK
*1467 ANTENNA__1466__CLK
*1468 ANTENNA__1469__D
*1469 ANTENNA__1470__D
*1470 ANTENNA__1471__CLK
*1471 ANTENNA__1472__CLK
*1472 ANTENNA__1473__CLK
*1473 ANTENNA__1474__CLK
*1474 ANTENNA__1475__CLK
*1475 ANTENNA__1476__CLK
*1476 ANTENNA__1477__CLK
*1477 ANTENNA__1478__CLK
*1478 ANTENNA__1479__CLK
*1479 ANTENNA__1480__CLK
*1480 ANTENNA__1481__CLK
*1481 ANTENNA__1482__CLK
*1482 ANTENNA__1483__CLK
*1483 ANTENNA__1484__CLK
*1484 ANTENNA__1485__CLK
*1485 ANTENNA__1486__CLK
*1486 ANTENNA__1487__CLK
*1487 ANTENNA__1488__CLK
*1488 ANTENNA__1489__CLK
*1489 ANTENNA__1490__CLK
*1490 ANTENNA__1491__CLK
*1491 ANTENNA__1494__CLK
*1492 ANTENNA__1495__CLK
*1493 ANTENNA_clkbuf_0_wb_clk_i_I
*1494 ANTENNA_clkbuf_3_0_0_wb_clk_i_I
*1495 ANTENNA_clkbuf_3_1_0_wb_clk_i_I
*1496 ANTENNA_clkbuf_3_2_0_wb_clk_i_I
*1497 ANTENNA_clkbuf_3_3_0_wb_clk_i_I
*1498 ANTENNA_clkbuf_3_4_0_wb_clk_i_I
*1499 ANTENNA_clkbuf_3_5_0_wb_clk_i_I
*1500 ANTENNA_clkbuf_3_6_0_wb_clk_i_I
*1501 ANTENNA_clkbuf_3_7_0_wb_clk_i_I
*1502 ANTENNA_fanout26_I
*1503 ANTENNA_input1_I
*1504 ANTENNA_input2_I
*1505 ANTENNA_input3_I
*1506 ANTENNA_input4_I
*1507 ANTENNA_input5_I
*1508 ANTENNA_input6_I
*1509 ANTENNA_input7_I
*1510 ANTENNA_input8_I
*1511 ANTENNA_input9_I
*1512 ANTENNA_output10_I
*1513 ANTENNA_output14_I
*1514 ANTENNA_output15_I
*1515 ANTENNA_output16_I
*1516 ANTENNA_output17_I
*1517 ANTENNA_output18_I
*1518 ANTENNA_output20_I
*1519 ANTENNA_output21_I
*1520 ANTENNA_output22_I
*1521 ANTENNA_output23_I
*1522 ANTENNA_output24_I
*1523 ANTENNA_output25_I
*1524 FILLER_0_0_104
*1525 FILLER_0_0_138
*1526 FILLER_0_0_172
*1527 FILLER_0_0_2
*1528 FILLER_0_0_206
*1529 FILLER_0_0_240
*1530 FILLER_0_0_248
*1531 FILLER_0_0_252
*1532 FILLER_0_0_269
*1533 FILLER_0_0_271
*1534 FILLER_0_0_274
*1535 FILLER_0_0_308
*1536 FILLER_0_0_324
*1537 FILLER_0_0_328
*1538 FILLER_0_0_330
*1539 FILLER_0_0_36
*1540 FILLER_0_0_70
*1541 FILLER_0_100_101
*1542 FILLER_0_100_107
*1543 FILLER_0_100_171