*SPEF "ieee 1481-1999"
*DESIGN "user_project_wrapper"
*DATE "11:11:11 Fri 11 11, 1111"
*VENDOR "OpenRCX"
*PROGRAM "Parallel Extraction"
*VERSION "1.0"
*DESIGN_FLOW "NAME_SCOPE LOCAL" "PIN_CAP NONE"
*DIVIDER /
*DELIMITER :
*BUS_DELIMITER []
*T_UNIT 1 NS
*C_UNIT 1 PF
*R_UNIT 1 OHM
*L_UNIT 1 HENRY

*NAME_MAP
*1 io_in[0]
*2 io_in[10]
*3 io_in[11]
*4 io_in[12]
*5 io_in[13]
*6 io_in[14]
*7 io_in[15]
*8 io_in[16]
*9 io_in[17]
*10 io_in[18]
*11 io_in[19]
*12 io_in[1]
*13 io_in[20]
*14 io_in[21]
*15 io_in[22]
*16 io_in[23]
*17 io_in[24]
*18 io_in[25]
*19 io_in[26]
*20 io_in[27]
*21 io_in[28]
*22 io_in[29]
*23 io_in[2]
*24 io_in[30]
*25 io_in[31]
*26 io_in[32]
*27 io_in[33]
*28 io_in[34]
*29 io_in[35]
*30 io_in[36]
*31 io_in[37]
*32 io_in[3]
*33 io_in[4]
*34 io_in[5]
*35 io_in[6]
*36 io_in[7]
*37 io_in[8]
*38 io_in[9]
*39 io_oeb[0]
*40 io_oeb[10]
*41 io_oeb[11]
*42 io_oeb[12]
*43 io_oeb[13]
*44 io_oeb[14]
*45 io_oeb[15]
*46 io_oeb[16]
*47 io_oeb[17]
*48 io_oeb[18]
*49 io_oeb[19]
*50 io_oeb[1]
*51 io_oeb[20]
*52 io_oeb[21]
*53 io_oeb[22]
*54 io_oeb[23]
*55 io_oeb[24]
*56 io_oeb[25]
*57 io_oeb[26]
*58 io_oeb[27]
*59 io_oeb[28]
*60 io_oeb[29]
*61 io_oeb[2]
*62 io_oeb[30]
*63 io_oeb[31]
*64 io_oeb[32]
*65 io_oeb[33]
*66 io_oeb[34]
*67 io_oeb[35]
*68 io_oeb[36]
*69 io_oeb[37]
*70 io_oeb[3]
*71 io_oeb[4]
*72 io_oeb[5]
*73 io_oeb[6]
*74 io_oeb[7]
*75 io_oeb[8]
*76 io_oeb[9]
*77 io_out[0]
*78 io_out[10]
*79 io_out[11]
*80 io_out[12]
*81 io_out[13]
*82 io_out[14]
*83 io_out[15]
*84 io_out[16]
*85 io_out[17]
*86 io_out[18]
*87 io_out[19]
*88 io_out[1]
*89 io_out[20]
*90 io_out[21]
*91 io_out[22]
*92 io_out[23]
*93 io_out[24]
*94 io_out[25]
*95 io_out[26]
*96 io_out[27]
*97 io_out[28]
*98 io_out[29]
*99 io_out[2]
*100 io_out[30]
*101 io_out[31]
*102 io_out[32]
*103 io_out[33]
*104 io_out[34]
*105 io_out[35]
*106 io_out[36]
*107 io_out[37]
*108 io_out[3]
*109 io_out[4]
*110 io_out[5]
*111 io_out[6]
*112 io_out[7]
*113 io_out[8]
*114 io_out[9]
*115 la_data_in[0]
*116 la_data_in[10]
*117 la_data_in[11]
*118 la_data_in[12]
*119 la_data_in[13]
*120 la_data_in[14]
*121 la_data_in[15]
*122 la_data_in[16]
*123 la_data_in[17]
*124 la_data_in[18]
*125 la_data_in[19]
*126 la_data_in[1]
*127 la_data_in[20]
*128 la_data_in[21]
*129 la_data_in[22]
*130 la_data_in[23]
*131 la_data_in[24]
*132 la_data_in[25]
*133 la_data_in[26]
*134 la_data_in[27]
*135 la_data_in[28]
*136 la_data_in[29]
*137 la_data_in[2]
*138 la_data_in[30]
*139 la_data_in[31]
*140 la_data_in[32]
*141 la_data_in[33]
*142 la_data_in[34]
*143 la_data_in[35]
*144 la_data_in[36]
*145 la_data_in[37]
*146 la_data_in[38]
*147 la_data_in[39]
*148 la_data_in[3]
*149 la_data_in[40]
*150 la_data_in[41]
*151 la_data_in[42]
*152 la_data_in[43]
*153 la_data_in[44]
*154 la_data_in[45]
*155 la_data_in[46]
*156 la_data_in[47]
*157 la_data_in[48]
*158 la_data_in[49]
*159 la_data_in[4]
*160 la_data_in[50]
*161 la_data_in[51]
*162 la_data_in[52]
*163 la_data_in[53]
*164 la_data_in[54]
*165 la_data_in[55]
*166 la_data_in[56]
*167 la_data_in[57]
*168 la_data_in[58]
*169 la_data_in[59]
*170 la_data_in[5]
*171 la_data_in[60]
*172 la_data_in[61]
*173 la_data_in[62]
*174 la_data_in[63]
*175 la_data_in[6]
*176 la_data_in[7]
*177 la_data_in[8]
*178 la_data_in[9]
*179 la_data_out[0]
*180 la_data_out[10]
*181 la_data_out[11]
*182 la_data_out[12]
*183 la_data_out[13]
*184 la_data_out[14]
*185 la_data_out[15]
*186 la_data_out[16]
*187 la_data_out[17]
*188 la_data_out[18]
*189 la_data_out[19]
*190 la_data_out[1]
*191 la_data_out[20]
*192 la_data_out[21]
*193 la_data_out[22]
*194 la_data_out[23]
*195 la_data_out[24]
*196 la_data_out[25]
*197 la_data_out[26]
*198 la_data_out[27]
*199 la_data_out[28]
*200 la_data_out[29]
*201 la_data_out[2]
*202 la_data_out[30]
*203 la_data_out[31]
*204 la_data_out[32]
*205 la_data_out[33]
*206 la_data_out[34]
*207 la_data_out[35]
*208 la_data_out[36]
*209 la_data_out[37]
*210 la_data_out[38]
*211 la_data_out[39]
*212 la_data_out[3]
*213 la_data_out[40]
*214 la_data_out[41]
*215 la_data_out[42]
*216 la_data_out[43]
*217 la_data_out[44]
*218 la_data_out[45]
*219 la_data_out[46]
*220 la_data_out[47]
*221 la_data_out[48]
*222 la_data_out[49]
*223 la_data_out[4]
*224 la_data_out[50]
*225 la_data_out[51]
*226 la_data_out[52]
*227 la_data_out[53]
*228 la_data_out[54]
*229 la_data_out[55]
*230 la_data_out[56]
*231 la_data_out[57]
*232 la_data_out[58]
*233 la_data_out[59]
*234 la_data_out[5]
*235 la_data_out[60]
*236 la_data_out[61]
*237 la_data_out[62]
*238 la_data_out[63]
*239 la_data_out[6]
*240 la_data_out[7]
*241 la_data_out[8]
*242 la_data_out[9]
*243 la_oenb[0]
*244 la_oenb[10]
*245 la_oenb[11]
*246 la_oenb[12]
*247 la_oenb[13]
*248 la_oenb[14]
*249 la_oenb[15]
*250 la_oenb[16]
*251 la_oenb[17]
*252 la_oenb[18]
*253 la_oenb[19]
*254 la_oenb[1]
*255 la_oenb[20]
*256 la_oenb[21]
*257 la_oenb[22]
*258 la_oenb[23]
*259 la_oenb[24]
*260 la_oenb[25]
*261 la_oenb[26]
*262 la_oenb[27]
*263 la_oenb[28]
*264 la_oenb[29]
*265 la_oenb[2]
*266 la_oenb[30]
*267 la_oenb[31]
*268 la_oenb[32]
*269 la_oenb[33]
*270 la_oenb[34]
*271 la_oenb[35]
*272 la_oenb[36]
*273 la_oenb[37]
*274 la_oenb[38]
*275 la_oenb[39]
*276 la_oenb[3]
*277 la_oenb[40]
*278 la_oenb[41]
*279 la_oenb[42]
*280 la_oenb[43]
*281 la_oenb[44]
*282 la_oenb[45]
*283 la_oenb[46]
*284 la_oenb[47]
*285 la_oenb[48]
*286 la_oenb[49]
*287 la_oenb[4]
*288 la_oenb[50]
*289 la_oenb[51]
*290 la_oenb[52]
*291 la_oenb[53]
*292 la_oenb[54]
*293 la_oenb[55]
*294 la_oenb[56]
*295 la_oenb[57]
*296 la_oenb[58]
*297 la_oenb[59]
*298 la_oenb[5]
*299 la_oenb[60]
*300 la_oenb[61]
*301 la_oenb[62]
*302 la_oenb[63]
*303 la_oenb[6]
*304 la_oenb[7]
*305 la_oenb[8]
*306 la_oenb[9]
*307 user_clock2
*308 user_irq[0]
*309 user_irq[1]
*310 user_irq[2]
*313 wb_clk_i
*314 wb_rst_i
*315 wbs_ack_o
*316 wbs_adr_i[0]
*317 wbs_adr_i[10]
*318 wbs_adr_i[11]
*319 wbs_adr_i[12]
*320 wbs_adr_i[13]
*321 wbs_adr_i[14]
*322 wbs_adr_i[15]
*323 wbs_adr_i[16]
*324 wbs_adr_i[17]
*325 wbs_adr_i[18]
*326 wbs_adr_i[19]
*327 wbs_adr_i[1]
*328 wbs_adr_i[20]
*329 wbs_adr_i[21]
*330 wbs_adr_i[22]
*331 wbs_adr_i[23]
*332 wbs_adr_i[24]
*333 wbs_adr_i[25]
*334 wbs_adr_i[26]
*335 wbs_adr_i[27]
*336 wbs_adr_i[28]
*337 wbs_adr_i[29]
*338 wbs_adr_i[2]
*339 wbs_adr_i[30]
*340 wbs_adr_i[31]
*341 wbs_adr_i[3]
*342 wbs_adr_i[4]
*343 wbs_adr_i[5]
*344 wbs_adr_i[6]
*345 wbs_adr_i[7]
*346 wbs_adr_i[8]
*347 wbs_adr_i[9]
*348 wbs_cyc_i
*349 wbs_dat_i[0]
*350 wbs_dat_i[10]
*351 wbs_dat_i[11]
*352 wbs_dat_i[12]
*353 wbs_dat_i[13]
*354 wbs_dat_i[14]
*355 wbs_dat_i[15]
*356 wbs_dat_i[16]
*357 wbs_dat_i[17]
*358 wbs_dat_i[18]
*359 wbs_dat_i[19]
*360 wbs_dat_i[1]
*361 wbs_dat_i[20]
*362 wbs_dat_i[21]
*363 wbs_dat_i[22]
*364 wbs_dat_i[23]
*365 wbs_dat_i[24]
*366 wbs_dat_i[25]
*367 wbs_dat_i[26]
*368 wbs_dat_i[27]
*369 wbs_dat_i[28]
*370 wbs_dat_i[29]
*371 wbs_dat_i[2]
*372 wbs_dat_i[30]
*373 wbs_dat_i[31]
*374 wbs_dat_i[3]
*375 wbs_dat_i[4]
*376 wbs_dat_i[5]
*377 wbs_dat_i[6]
*378 wbs_dat_i[7]
*379 wbs_dat_i[8]
*380 wbs_dat_i[9]
*381 wbs_dat_o[0]
*382 wbs_dat_o[10]
*383 wbs_dat_o[11]
*384 wbs_dat_o[12]
*385 wbs_dat_o[13]
*386 wbs_dat_o[14]
*387 wbs_dat_o[15]
*388 wbs_dat_o[16]
*389 wbs_dat_o[17]
*390 wbs_dat_o[18]
*391 wbs_dat_o[19]
*392 wbs_dat_o[1]
*393 wbs_dat_o[20]
*394 wbs_dat_o[21]
*395 wbs_dat_o[22]
*396 wbs_dat_o[23]
*397 wbs_dat_o[24]
*398 wbs_dat_o[25]
*399 wbs_dat_o[26]
*400 wbs_dat_o[27]
*401 wbs_dat_o[28]
*402 wbs_dat_o[29]
*403 wbs_dat_o[2]
*404 wbs_dat_o[30]
*405 wbs_dat_o[31]
*406 wbs_dat_o[3]
*407 wbs_dat_o[4]
*408 wbs_dat_o[5]
*409 wbs_dat_o[6]
*410 wbs_dat_o[7]
*411 wbs_dat_o[8]
*412 wbs_dat_o[9]
*413 wbs_sel_i[0]
*414 wbs_sel_i[1]
*415 wbs_sel_i[2]
*416 wbs_sel_i[3]
*417 wbs_stb_i
*418 wbs_we_i
*419 mprj

*PORTS
io_in[0] I
io_in[10] I
io_in[11] I
io_in[12] I
io_in[13] I
io_in[14] I
io_in[15] I
io_in[16] I
io_in[17] I
io_in[18] I
io_in[19] I
io_in[1] I
io_in[20] I
io_in[21] I
io_in[22] I
io_in[23] I
io_in[24] I
io_in[25] I
io_in[26] I
io_in[27] I
io_in[28] I
io_in[29] I
io_in[2] I
io_in[30] I
io_in[31] I
io_in[32] I
io_in[33] I
io_in[34] I
io_in[35] I
io_in[36] I
io_in[37] I
io_in[3] I
io_in[4] I
io_in[5] I
io_in[6] I
io_in[7] I
io_in[8] I
io_in[9] I
io_oeb[0] O
io_oeb[10] O
io_oeb[11] O
io_oeb[12] O
io_oeb[13] O
io_oeb[14] O
io_oeb[15] O
io_oeb[16] O
io_oeb[17] O
io_oeb[18] O
io_oeb[19] O
io_oeb[1] O
io_oeb[20] O
io_oeb[21] O
io_oeb[22] O
io_oeb[23] O
io_oeb[24] O
io_oeb[25] O
io_oeb[26] O
io_oeb[27] O
io_oeb[28] O
io_oeb[29] O
io_oeb[2] O
io_oeb[30] O
io_oeb[31] O
io_oeb[32] O
io_oeb[33] O
io_oeb[34] O
io_oeb[35] O
io_oeb[36] O
io_oeb[37] O
io_oeb[3] O
io_oeb[4] O
io_oeb[5] O
io_oeb[6] O
io_oeb[7] O
io_oeb[8] O
io_oeb[9] O
io_out[0] O
io_out[10] O
io_out[11] O
io_out[12] O
io_out[13] O
io_out[14] O
io_out[15] O
io_out[16] O
io_out[17] O
io_out[18] O
io_out[19] O
io_out[1] O
io_out[20] O
io_out[21] O
io_out[22] O
io_out[23] O
io_out[24] O
io_out[25] O
io_out[26] O
io_out[27] O
io_out[28] O
io_out[29] O
io_out[2] O
io_out[30] O
io_out[31] O
io_out[32] O
io_out[33] O
io_out[34] O
io_out[35] O
io_out[36] O
io_out[37] O
io_out[3] O
io_out[4] O
io_out[5] O
io_out[6] O
io_out[7] O
io_out[8] O
io_out[9] O
la_data_in[0] I
la_data_in[10] I
la_data_in[11] I
la_data_in[12] I
la_data_in[13] I
la_data_in[14] I
la_data_in[15] I
la_data_in[16] I
la_data_in[17] I
la_data_in[18] I
la_data_in[19] I
la_data_in[1] I
la_data_in[20] I
la_data_in[21] I
la_data_in[22] I
la_data_in[23] I
la_data_in[24] I
la_data_in[25] I
la_data_in[26] I
la_data_in[27] I
la_data_in[28] I
la_data_in[29] I
la_data_in[2] I
la_data_in[30] I
la_data_in[31] I
la_data_in[32] I
la_data_in[33] I
la_data_in[34] I
la_data_in[35] I
la_data_in[36] I
la_data_in[37] I
la_data_in[38] I
la_data_in[39] I
la_data_in[3] I
la_data_in[40] I
la_data_in[41] I
la_data_in[42] I
la_data_in[43] I
la_data_in[44] I
la_data_in[45] I
la_data_in[46] I
la_data_in[47] I
la_data_in[48] I
la_data_in[49] I
la_data_in[4] I
la_data_in[50] I
la_data_in[51] I
la_data_in[52] I
la_data_in[53] I
la_data_in[54] I
la_data_in[55] I
la_data_in[56] I
la_data_in[57] I
la_data_in[58] I
la_data_in[59] I
la_data_in[5] I
la_data_in[60] I
la_data_in[61] I
la_data_in[62] I
la_data_in[63] I
la_data_in[6] I
la_data_in[7] I
la_data_in[8] I
la_data_in[9] I
la_data_out[0] O
la_data_out[10] O
la_data_out[11] O
la_data_out[12] O
la_data_out[13] O
la_data_out[14] O
la_data_out[15] O
la_data_out[16] O
la_data_out[17] O
la_data_out[18] O
la_data_out[19] O
la_data_out[1] O
la_data_out[20] O
la_data_out[21] O
la_data_out[22] O
la_data_out[23] O
la_data_out[24] O
la_data_out[25] O
la_data_out[26] O
la_data_out[27] O
la_data_out[28] O
la_data_out[29] O
la_data_out[2] O
la_data_out[30] O
la_data_out[31] O
la_data_out[32] O
la_data_out[33] O
la_data_out[34] O
la_data_out[35] O
la_data_out[36] O
la_data_out[37] O
la_data_out[38] O
la_data_out[39] O
la_data_out[3] O
la_data_out[40] O
la_data_out[41] O
la_data_out[42] O
la_data_out[43] O
la_data_out[44] O
la_data_out[45] O
la_data_out[46] O
la_data_out[47] O
la_data_out[48] O
la_data_out[49] O
la_data_out[4] O
la_data_out[50] O
la_data_out[51] O
la_data_out[52] O
la_data_out[53] O
la_data_out[54] O
la_data_out[55] O
la_data_out[56] O
la_data_out[57] O
la_data_out[58] O
la_data_out[59] O
la_data_out[5] O
la_data_out[60] O
la_data_out[61] O
la_data_out[62] O
la_data_out[63] O
la_data_out[6] O
la_data_out[7] O
la_data_out[8] O
la_data_out[9] O
la_oenb[0] I
la_oenb[10] I
la_oenb[11] I
la_oenb[12] I
la_oenb[13] I
la_oenb[14] I
la_oenb[15] I
la_oenb[16] I
la_oenb[17] I
la_oenb[18] I
la_oenb[19] I
la_oenb[1] I
la_oenb[20] I
la_oenb[21] I
la_oenb[22] I
la_oenb[23] I
la_oenb[24] I
la_oenb[25] I
la_oenb[26] I
la_oenb[27] I
la_oenb[28] I
la_oenb[29] I
la_oenb[2] I
la_oenb[30] I
la_oenb[31] I
la_oenb[32] I
la_oenb[33] I
la_oenb[34] I
la_oenb[35] I
la_oenb[36] I
la_oenb[37] I
la_oenb[38] I
la_oenb[39] I
la_oenb[3] I
la_oenb[40] I
la_oenb[41] I
la_oenb[42] I
la_oenb[43] I
la_oenb[44] I
la_oenb[45] I
la_oenb[46] I
la_oenb[47] I
la_oenb[48] I
la_oenb[49] I
la_oenb[4] I
la_oenb[50] I
la_oenb[51] I
la_oenb[52] I
la_oenb[53] I
la_oenb[54] I
la_oenb[55] I
la_oenb[56] I
la_oenb[57] I
la_oenb[58] I
la_oenb[59] I
la_oenb[5] I
la_oenb[60] I
la_oenb[61] I
la_oenb[62] I
la_oenb[63] I
la_oenb[6] I
la_oenb[7] I
la_oenb[8] I
la_oenb[9] I
user_clock2 I
user_irq[0] O
user_irq[1] O
user_irq[2] O
wb_clk_i I
wb_rst_i I
wbs_ack_o O
wbs_adr_i[0] I
wbs_adr_i[10] I
wbs_adr_i[11] I
wbs_adr_i[12] I
wbs_adr_i[13] I
wbs_adr_i[14] I
wbs_adr_i[15] I
wbs_adr_i[16] I
wbs_adr_i[17] I
wbs_adr_i[18] I
wbs_adr_i[19] I
wbs_adr_i[1] I
wbs_adr_i[20] I
wbs_adr_i[21] I
wbs_adr_i[22] I
wbs_adr_i[23] I
wbs_adr_i[24] I
wbs_adr_i[25] I
wbs_adr_i[26] I
wbs_adr_i[27] I
wbs_adr_i[28] I
wbs_adr_i[29] I
wbs_adr_i[2] I
wbs_adr_i[30] I
wbs_adr_i[31] I
wbs_adr_i[3] I
wbs_adr_i[4] I
wbs_adr_i[5] I
wbs_adr_i[6] I
wbs_adr_i[7] I
wbs_adr_i[8] I
wbs_adr_i[9] I
wbs_cyc_i I
wbs_dat_i[0] I
wbs_dat_i[10] I
wbs_dat_i[11] I
wbs_dat_i[12] I
wbs_dat_i[13] I
wbs_dat_i[14] I
wbs_dat_i[15] I
wbs_dat_i[16] I
wbs_dat_i[17] I
wbs_dat_i[18] I
wbs_dat_i[19] I
wbs_dat_i[1] I
wbs_dat_i[20] I
wbs_dat_i[21] I
wbs_dat_i[22] I
wbs_dat_i[23] I
wbs_dat_i[24] I
wbs_dat_i[25] I
wbs_dat_i[26] I
wbs_dat_i[27] I
wbs_dat_i[28] I
wbs_dat_i[29] I
wbs_dat_i[2] I
wbs_dat_i[30] I
wbs_dat_i[31] I
wbs_dat_i[3] I
wbs_dat_i[4] I
wbs_dat_i[5] I
wbs_dat_i[6] I
wbs_dat_i[7] I
wbs_dat_i[8] I
wbs_dat_i[9] I
wbs_dat_o[0] O
wbs_dat_o[10] O
wbs_dat_o[11] O
wbs_dat_o[12] O
wbs_dat_o[13] O
wbs_dat_o[14] O
wbs_dat_o[15] O
wbs_dat_o[16] O
wbs_dat_o[17] O
wbs_dat_o[18] O
wbs_dat_o[19] O
wbs_dat_o[1] O
wbs_dat_o[20] O
wbs_dat_o[21] O
wbs_dat_o[22] O
wbs_dat_o[23] O
wbs_dat_o[24] O
wbs_dat_o[25] O
wbs_dat_o[26] O
wbs_dat_o[27] O
wbs_dat_o[28] O
wbs_dat_o[29] O
wbs_dat_o[2] O
wbs_dat_o[30] O
wbs_dat_o[31] O
wbs_dat_o[3] O
wbs_dat_o[4] O
wbs_dat_o[5] O
wbs_dat_o[6] O
wbs_dat_o[7] O
wbs_dat_o[8] O
wbs_dat_o[9] O
wbs_sel_i[0] I
wbs_sel_i[1] I
wbs_sel_i[2] I
wbs_sel_i[3] I
wbs_stb_i I
wbs_we_i I

*D_NET *2 0.0792106
*CONN
*P io_in[10] I
*I *419:io_in[5] I *D user_proj_example
*CAP
1 io_in[10] 0.00585461
2 *419:io_in[5] 0.000916044
3 *2:9 0.0337507
4 *2:7 0.0386893
*RES
1 io_in[10] *2:7 45.73 
2 *2:7 *2:9 238.412 
3 *2:9 *419:io_in[5] 10.466 
*END

*D_NET *3 0.178699
*CONN
*P io_in[11] I
*I *419:io_in[6] I *D user_proj_example
*CAP
1 io_in[11] 0.00100554
2 *419:io_in[6] 0.00579272
3 *3:9 0.0137269
4 *3:7 0.00893972
5 *3:9 *6:27 0.0970152
6 *3:9 *38:9 0.0522194
*RES
1 io_in[11] *3:7 11.226 
2 *3:7 *3:9 232.94 
3 *3:9 *419:io_in[6] 44.97 
*END

*D_NET *4 0.0763721
*CONN
*P io_in[12] I
*I *419:io_in[7] I *D user_proj_example
*CAP
1 io_in[12] 0.00520814
2 *419:io_in[7] 0.0015767
3 *4:9 0.0329779
4 *4:7 0.0366093
*RES
1 io_in[12] *4:7 41.17 
2 *4:7 *4:9 227.468 
3 *4:9 *419:io_in[7] 15.026 
*END

*D_NET *5 0.375498
*CONN
*P io_in[13] I
*I *419:io_oeb[0] O *D user_proj_example
*I *419:io_out[0] O *D user_proj_example
*CAP
1 io_in[13] 0.00106049
2 *419:io_oeb[0] 0.000616815
3 *419:io_out[0] 0.00483801
4 *5:25 0.0485381
5 *5:23 0.0527153
6 *5:11 0.0106925
7 *5:11 *34:9 0
8 *5:25 *6:27 0.248584
9 *5:25 *35:9 0.0084529
*RES
1 *419:io_out[0] *5:11 32.522 
2 *5:11 *419:io_oeb[0] 3.762 
3 *5:11 *5:23 42.12 
4 *5:23 *5:25 655.652 
5 *5:25 io_in[13] 11.53 
*END

*D_NET *6 0.501065
*CONN
*P io_in[14] I
*I *419:io_oeb[1] O *D user_proj_example
*I *419:io_out[1] O *D user_proj_example
*CAP
1 io_in[14] 0.00122247
2 *419:io_oeb[1] 0.000506177
3 *419:io_out[1] 0.00463924
4 *6:27 0.0174735
5 *6:25 0.0217653
6 *6:9 0.0106596
7 *6:9 *34:9 0
8 *6:25 *34:9 0
9 *6:27 *35:9 0.0915699
10 *6:27 *38:9 0.00762983
11 *3:9 *6:27 0.0970152
12 *5:25 *6:27 0.248584
*RES
1 *419:io_out[1] *6:9 26.958 
2 *6:9 *419:io_oeb[1] 7.122 
3 *6:9 *6:25 47.912 
4 *6:25 *6:27 650.18 
5 *6:27 io_in[14] 11.378 
*END

*D_NET *7 0.201723
*CONN
*P io_in[15] I
*I *419:io_oeb[2] O *D user_proj_example
*I *419:io_out[2] O *D user_proj_example
*CAP
1 io_in[15] 0.0927637
2 *419:io_oeb[2] 0.000457894
3 *419:io_out[2] 0.00337835
4 *7:25 0.0970254
5 *7:9 0.008098
*RES
1 *419:io_out[2] *7:9 26.958 
2 *7:9 *419:io_oeb[2] 7.122 
3 *7:9 *7:25 39.856 
4 *7:25 io_in[15] 636.31 
*END

*D_NET *8 0.18422
*CONN
*P io_in[16] I
*I *419:io_oeb[3] O *D user_proj_example
*I *419:io_out[3] O *D user_proj_example
*CAP
1 io_in[16] 0.000938049
2 *419:io_oeb[3] 0.0125182
3 *419:io_out[3] 0.00389922
4 *8:29 0.0795719
5 *8:27 0.0872528
6 io_in[16] *10:23 3.94551e-05
*RES
1 *419:io_out[3] *419:io_oeb[3] 34.688 
2 *419:io_oeb[3] *8:27 39.2913 
3 *8:27 *8:29 570.122 
4 *8:29 io_in[16] 15.498 
*END

*D_NET *9 0.186483
*CONN
*P io_in[17] I
*I *419:io_oeb[4] O *D user_proj_example
*I *419:io_out[4] O *D user_proj_example
*CAP
1 io_in[17] 0.00102705
2 *419:io_oeb[4] 0.0042265
3 *419:io_out[4] 0.00390248
4 *9:29 0.0714484
5 *9:27 0.0704213
6 *9:25 0.0175074
7 *9:23 0.0178315
8 io_in[17] *10:23 0.000118322
*RES
1 *419:io_out[4] *419:io_oeb[4] 34.536 
2 *419:io_oeb[4] *9:23 11.2773 
3 *9:23 *9:25 60.8864 
4 *9:25 *9:27 4.5 
5 *9:27 *9:29 510.761 
6 *9:29 io_in[17] 16.41 
*END

*D_NET *10 0.382557
*CONN
*P io_in[18] I
*I *419:io_oeb[5] O *D user_proj_example
*I *419:io_out[5] O *D user_proj_example
*CAP
1 io_in[18] 0.000977306
2 *419:io_oeb[5] 0.000462216
3 *419:io_out[5] 0.00337835
4 *10:23 0.0180115
5 *10:21 0.0170342
6 *10:19 0.0360132
7 *10:9 0.0398537
8 *10:19 *11:9 0.00801691
9 *10:19 *11:19 0.159342
10 *10:23 *11:23 0.0993102
11 io_in[16] *10:23 3.94551e-05
12 io_in[17] *10:23 0.000118322
*RES
1 *419:io_out[5] *10:9 26.958 
2 *10:9 *419:io_oeb[5] 7.122 
3 *10:9 *10:19 452.884 
4 *10:19 *10:21 4.5 
5 *10:21 *10:23 239.628 
6 *10:23 io_in[18] 11.226 
*END

*D_NET *11 0.573473
*CONN
*P io_in[19] I
*I *419:io_oeb[6] O *D user_proj_example
*I *419:io_out[6] O *D user_proj_example
*CAP
1 io_in[19] 0.000999175
2 *419:io_oeb[6] 0.000496794
3 *419:io_out[6] 0.00196239
4 *11:23 0.00796034
5 *11:21 0.00696117
6 *11:19 0.00301069
7 *11:9 0.00546987
8 *11:19 *13:9 0.00803075
9 *11:19 *13:19 0.135286
10 *11:23 *13:23 0.136628
11 *10:19 *11:9 0.00801691
12 *10:19 *11:19 0.159342
13 *10:23 *11:23 0.0993102
*RES
1 *419:io_out[6] *11:9 27.11 
2 *11:9 *419:io_oeb[6] 7.274 
3 *11:9 *11:19 393.452 
4 *11:19 *11:21 4.5 
5 *11:21 *11:23 329.612 
6 *11:23 io_in[19] 11.378 
*END

*D_NET *13 0.408133
*CONN
*P io_in[20] I
*I *419:io_oeb[7] O *D user_proj_example
*I *419:io_out[7] O *D user_proj_example
*CAP
1 io_in[20] 0.00102104
2 *419:io_oeb[7] 0.000531372
3 *419:io_out[7] 0.00198733
4 *13:23 0.0371971
5 *13:21 0.036176
6 *13:19 0.0243785
7 *13:9 0.0268972
8 *11:19 *13:9 0.00803075
9 *11:19 *13:19 0.135286
10 *11:23 *13:23 0.136628
*RES
1 *419:io_out[7] *13:9 27.262 
2 *13:9 *419:io_oeb[7] 7.426 
3 *13:9 *13:19 334.02 
4 *13:19 *13:21 4.5 
5 *13:21 *13:23 419.596 
6 *13:23 io_in[20] 11.53 
*END

*D_NET *14 0.173264
*CONN
*P io_in[21] I
*I *419:io_oeb[8] O *D user_proj_example
*I *419:io_out[8] O *D user_proj_example
*CAP
1 io_in[21] 0.00108472
2 *419:io_oeb[8] 0.00247344
3 *419:io_out[8] 0.00260874
4 *14:37 0.0478166
5 *14:35 0.0467318
6 *14:33 0.0304066
7 *14:31 0.0305419
8 *419:io_oeb[8] *15:19 0.0116002
*RES
1 *419:io_out[8] *419:io_oeb[8] 39.4 
2 *419:io_out[8] *14:31 9.84414 
3 *14:31 *14:33 105.114 
4 *14:33 *14:35 4.5 
5 *14:35 *14:37 339.028 
6 *14:37 io_in[21] 16.41 
*END

*D_NET *15 0.180519
*CONN
*P io_in[22] I
*I *419:io_oeb[9] O *D user_proj_example
*I *419:io_out[9] O *D user_proj_example
*CAP
1 io_in[22] 0.00102104
2 *419:io_oeb[9] 0.00449264
3 *419:io_out[9] 0.000250725
4 *15:23 0.0239418
5 *15:21 0.0229208
6 *15:19 0.0557742
7 *15:7 0.0605176
8 *15:23 io_in[23] 0
9 *419:io_oeb[8] *15:19 0.0116002
*RES
1 *419:io_out[9] *15:7 5.45 
2 *15:7 *419:io_oeb[9] 35.318 
3 *15:7 *15:19 396.644 
4 *15:19 *15:21 4.5 
5 *15:21 *15:23 163.324 
6 *15:23 io_in[22] 11.53 
*END

*D_NET *16 0.155128
*CONN
*P io_in[23] I
*I *419:io_oeb[10] O *D user_proj_example
*I *419:io_out[10] O *D user_proj_example
*CAP
1 io_in[23] 0.00114141
2 *419:io_oeb[10] 0.00435951
3 *419:io_out[10] 0.0132543
4 *16:33 0.0643097
5 *16:31 0.0720631
6 *15:23 io_in[23] 0
*RES
1 *419:io_out[10] *419:io_oeb[10] 38.944 
2 *419:io_out[10] *16:31 44.2495 
3 *16:31 *16:33 457.995 
4 *16:33 io_in[23] 16.866 
*END

*D_NET *17 0.280017
*CONN
*P io_in[24] I
*I *419:io_oeb[11] O *D user_proj_example
*I *419:io_out[11] O *D user_proj_example
*CAP
1 io_in[24] 0.000669107
2 *419:io_oeb[11] 0.00416589
3 *419:io_out[11] 0
4 *17:21 0.0405018
5 *17:19 0.0404448
6 *17:4 0.00477798
7 *17:21 *18:25 0.189457
*RES
1 *419:io_out[11] *17:4 4.5 
2 *17:4 *419:io_oeb[11] 34.368 
3 *17:4 *17:19 10.9042 
4 *17:19 *17:21 511.977 
5 *17:21 io_in[24] 9.25 
*END

*D_NET *18 0.398671
*CONN
*P io_in[25] I
*I *419:io_oeb[12] O *D user_proj_example
*I *419:io_out[12] O *D user_proj_example
*CAP
1 io_in[25] 0.00064847
2 *419:io_oeb[12] 0.00415895
3 *419:io_out[12] 8.10105e-05
4 *18:25 0.0101059
5 *18:23 0.0104306
6 *18:6 0.00521316
7 *18:25 *19:27 0.0120467
8 *18:25 *20:21 0.16653
9 *17:21 *18:25 0.189457
*RES
1 *419:io_out[12] *18:6 4.899 
2 *18:6 *419:io_oeb[12] 34.957 
3 *18:6 *18:23 10.2591 
4 *18:23 *18:25 514.615 
5 *18:25 io_in[25] 9.098 
*END

*D_NET *19 0.399295
*CONN
*P io_in[26] I
*I *419:io_oeb[13] O *D user_proj_example
*I *419:io_out[13] O *D user_proj_example
*CAP
1 io_in[26] 0.000607195
2 *419:io_oeb[13] 0.00413123
3 *419:io_out[13] 0.00472746
4 *19:27 0.00984748
5 *19:25 0.00983651
6 *19:27 *20:21 0.191005
7 *19:27 *21:21 0.167093
8 *18:25 *19:27 0.0120467
*RES
1 *419:io_out[13] *419:io_oeb[13] 38.868 
2 *419:io_out[13] *19:25 16.1002 
3 *19:25 *19:27 515.788 
4 *19:27 io_in[26] 8.794 
*END

*D_NET *20 0.399966
*CONN
*P io_in[27] I
*I *419:io_oeb[14] O *D user_proj_example
*I *419:io_out[14] O *D user_proj_example
*CAP
1 io_in[27] 0.000778179
2 *419:io_oeb[14] 0.00415108
3 *419:io_out[14] 0
4 *20:21 0.0102794
5 *20:19 0.0100007
6 *20:4 0.00465058
7 *20:21 *21:21 0.0125713
8 *18:25 *20:21 0.16653
9 *19:27 *20:21 0.191005
*RES
1 *419:io_out[14] *20:4 4.5 
2 *20:4 *419:io_oeb[14] 34.368 
3 *20:4 *20:19 10.7118 
4 *20:19 *20:21 518.426 
5 *20:21 io_in[27] 8.946 
*END

*D_NET *21 0.271668
*CONN
*P io_in[28] I
*I *419:io_oeb[15] O *D user_proj_example
*I *419:io_out[15] O *D user_proj_example
*CAP
1 io_in[28] 0.000718123
2 *419:io_oeb[15] 0.00408252
3 *419:io_out[15] 0
4 *21:21 0.0414604
5 *21:19 0.0412011
6 *21:4 0.00454137
7 *19:27 *21:21 0.167093
8 *20:21 *21:21 0.0125713
*RES
1 *419:io_out[15] *21:4 4.5 
2 *21:4 *419:io_oeb[15] 34.368 
3 *21:4 *21:19 10.5628 
4 *21:19 *21:21 520.576 
5 *21:21 io_in[28] 8.642 
*END

*D_NET *34 0.0871714
*CONN
*P io_in[5] I
*I *419:io_in[0] I *D user_proj_example
*CAP
1 io_in[5] 0.00619153
2 *419:io_in[0] 0.000606484
3 *34:9 0.0373942
4 *34:7 0.0429792
5 *5:11 *34:9 0
6 *6:9 *34:9 0
7 *6:25 *34:9 0
*RES
1 io_in[5] *34:7 48.01 
2 *34:7 *34:9 265.772 
3 *34:9 *419:io_in[0] 8.186 
*END

*D_NET *35 0.173501
*CONN
*P io_in[6] I
*I *419:io_in[1] I *D user_proj_example
*CAP
1 io_in[6] 0.00101922
2 *419:io_in[1] 0.00572383
3 *35:9 0.0185626
4 *35:7 0.013858
5 *35:9 *38:9 0.0343144
6 *5:25 *35:9 0.0084529
7 *6:27 *35:9 0.0915699
*RES
1 io_in[6] *35:7 11.226 
2 *35:7 *35:9 260.3 
3 *35:9 *419:io_in[1] 44.97 
*END

*D_NET *36 0.0839999
*CONN
*P io_in[7] I
*I *419:io_in[2] I *D user_proj_example
*CAP
1 io_in[7] 0.00524918
2 *419:io_in[2] 0.00154883
3 *36:9 0.0367508
4 *36:7 0.0404511
*RES
1 io_in[7] *36:7 41.17 
2 *36:7 *36:9 254.828 
3 *36:9 *419:io_in[2] 15.026 
*END

*D_NET *37 0.0823591
*CONN
*P io_in[8] I
*I *419:io_in[3] I *D user_proj_example
*CAP
1 io_in[8] 0.00492595
2 *419:io_in[3] 0.00187207
3 *37:9 0.0362536
4 *37:7 0.0393075
*RES
1 io_in[8] *37:7 38.89 
2 *37:7 *37:9 249.356 
3 *37:9 *419:io_in[3] 17.306 
*END

*D_NET *38 0.145016
*CONN
*P io_in[9] I
*I *419:io_in[4] I *D user_proj_example
*CAP
1 io_in[9] 0.00117099
2 *419:io_in[4] 0.00706635
3 *38:9 0.0242553
4 *38:7 0.0183599
5 *3:9 *38:9 0.0522194
6 *6:27 *38:9 0.00762983
7 *35:9 *38:9 0.0343144
*RES
1 io_in[9] *38:7 11.074 
2 *38:7 *38:9 243.884 
3 *38:9 *419:io_in[4] 45.122 
*END

*D_NET *313 0.0973467
*CONN
*P wb_clk_i I
*I *419:wb_clk_i I *D user_proj_example
*CAP
1 wb_clk_i 0.000140838
2 *419:wb_clk_i 0.000366863
3 *313:13 0.0126367
4 *313:11 0.0124107
5 *313:13 *314:13 0.0717916
*RES
1 wb_clk_i *313:11 5.602 
2 *313:11 *313:13 174.42 
3 *313:13 *419:wb_clk_i 6.894 
*END

*D_NET *314 0.201481
*CONN
*P wb_rst_i I
*I *419:wb_rst_i I *D user_proj_example
*CAP
1 wb_rst_i 0.000118969
2 *419:wb_rst_i 0.000332172
3 *314:13 0.064726
4 *314:11 0.0645128
5 *313:13 *314:13 0.0717916
*RES
1 wb_rst_i *314:11 5.45 
2 *314:11 *314:13 552.444 
3 *314:13 *419:wb_rst_i 6.742 
*END
