*SPEF "ieee 1481-1999"
*DESIGN "user_project_wrapper"
*DATE "11:11:11 Fri 11 11, 1111"
*VENDOR "OpenRCX"
*PROGRAM "Parallel Extraction"
*VERSION "1.0"
*DESIGN_FLOW "NAME_SCOPE LOCAL" "PIN_CAP NONE"
*DIVIDER /
*DELIMITER :
*BUS_DELIMITER []
*T_UNIT 1 NS
*C_UNIT 1 PF
*R_UNIT 1 OHM
*L_UNIT 1 HENRY

*NAME_MAP
*1 io_in[0]
*2 io_in[10]
*3 io_in[11]
*4 io_in[12]
*5 io_in[13]
*6 io_in[14]
*7 io_in[15]
*8 io_in[16]
*9 io_in[17]
*10 io_in[18]
*11 io_in[19]
*12 io_in[1]
*13 io_in[20]
*14 io_in[21]
*15 io_in[22]
*16 io_in[23]
*17 io_in[24]
*18 io_in[25]
*19 io_in[26]
*20 io_in[27]
*21 io_in[28]
*22 io_in[29]
*23 io_in[2]
*24 io_in[30]
*25 io_in[31]
*26 io_in[32]
*27 io_in[33]
*28 io_in[34]
*29 io_in[35]
*30 io_in[36]
*31 io_in[37]
*32 io_in[3]
*33 io_in[4]
*34 io_in[5]
*35 io_in[6]
*36 io_in[7]
*37 io_in[8]
*38 io_in[9]
*39 io_oeb[0]
*40 io_oeb[10]
*41 io_oeb[11]
*42 io_oeb[12]
*43 io_oeb[13]
*44 io_oeb[14]
*45 io_oeb[15]
*46 io_oeb[16]
*47 io_oeb[17]
*48 io_oeb[18]
*49 io_oeb[19]
*50 io_oeb[1]
*51 io_oeb[20]
*52 io_oeb[21]
*53 io_oeb[22]
*54 io_oeb[23]
*55 io_oeb[24]
*56 io_oeb[25]
*57 io_oeb[26]
*58 io_oeb[27]
*59 io_oeb[28]
*60 io_oeb[29]
*61 io_oeb[2]
*62 io_oeb[30]
*63 io_oeb[31]
*64 io_oeb[32]
*65 io_oeb[33]
*66 io_oeb[34]
*67 io_oeb[35]
*68 io_oeb[36]
*69 io_oeb[37]
*70 io_oeb[3]
*71 io_oeb[4]
*72 io_oeb[5]
*73 io_oeb[6]
*74 io_oeb[7]
*75 io_oeb[8]
*76 io_oeb[9]
*77 io_out[0]
*78 io_out[10]
*79 io_out[11]
*80 io_out[12]
*81 io_out[13]
*82 io_out[14]
*83 io_out[15]
*84 io_out[16]
*85 io_out[17]
*86 io_out[18]
*87 io_out[19]
*88 io_out[1]
*89 io_out[20]
*90 io_out[21]
*91 io_out[22]
*92 io_out[23]
*93 io_out[24]
*94 io_out[25]
*95 io_out[26]
*96 io_out[27]
*97 io_out[28]
*98 io_out[29]
*99 io_out[2]
*100 io_out[30]
*101 io_out[31]
*102 io_out[32]
*103 io_out[33]
*104 io_out[34]
*105 io_out[35]
*106 io_out[36]
*107 io_out[37]
*108 io_out[3]
*109 io_out[4]
*110 io_out[5]
*111 io_out[6]
*112 io_out[7]
*113 io_out[8]
*114 io_out[9]
*115 la_data_in[0]
*116 la_data_in[10]
*117 la_data_in[11]
*118 la_data_in[12]
*119 la_data_in[13]
*120 la_data_in[14]
*121 la_data_in[15]
*122 la_data_in[16]
*123 la_data_in[17]
*124 la_data_in[18]
*125 la_data_in[19]
*126 la_data_in[1]
*127 la_data_in[20]
*128 la_data_in[21]
*129 la_data_in[22]
*130 la_data_in[23]
*131 la_data_in[24]
*132 la_data_in[25]
*133 la_data_in[26]
*134 la_data_in[27]
*135 la_data_in[28]
*136 la_data_in[29]
*137 la_data_in[2]
*138 la_data_in[30]
*139 la_data_in[31]
*140 la_data_in[32]
*141 la_data_in[33]
*142 la_data_in[34]
*143 la_data_in[35]
*144 la_data_in[36]
*145 la_data_in[37]
*146 la_data_in[38]
*147 la_data_in[39]
*148 la_data_in[3]
*149 la_data_in[40]
*150 la_data_in[41]
*151 la_data_in[42]
*152 la_data_in[43]
*153 la_data_in[44]
*154 la_data_in[45]
*155 la_data_in[46]
*156 la_data_in[47]
*157 la_data_in[48]
*158 la_data_in[49]
*159 la_data_in[4]
*160 la_data_in[50]
*161 la_data_in[51]
*162 la_data_in[52]
*163 la_data_in[53]
*164 la_data_in[54]
*165 la_data_in[55]
*166 la_data_in[56]
*167 la_data_in[57]
*168 la_data_in[58]
*169 la_data_in[59]
*170 la_data_in[5]
*171 la_data_in[60]
*172 la_data_in[61]
*173 la_data_in[62]
*174 la_data_in[63]
*175 la_data_in[6]
*176 la_data_in[7]
*177 la_data_in[8]
*178 la_data_in[9]
*179 la_data_out[0]
*180 la_data_out[10]
*181 la_data_out[11]
*182 la_data_out[12]
*183 la_data_out[13]
*184 la_data_out[14]
*185 la_data_out[15]
*186 la_data_out[16]
*187 la_data_out[17]
*188 la_data_out[18]
*189 la_data_out[19]
*190 la_data_out[1]
*191 la_data_out[20]
*192 la_data_out[21]
*193 la_data_out[22]
*194 la_data_out[23]
*195 la_data_out[24]
*196 la_data_out[25]
*197 la_data_out[26]
*198 la_data_out[27]
*199 la_data_out[28]
*200 la_data_out[29]
*201 la_data_out[2]
*202 la_data_out[30]
*203 la_data_out[31]
*204 la_data_out[32]
*205 la_data_out[33]
*206 la_data_out[34]
*207 la_data_out[35]
*208 la_data_out[36]
*209 la_data_out[37]
*210 la_data_out[38]
*211 la_data_out[39]
*212 la_data_out[3]
*213 la_data_out[40]
*214 la_data_out[41]
*215 la_data_out[42]
*216 la_data_out[43]
*217 la_data_out[44]
*218 la_data_out[45]
*219 la_data_out[46]
*220 la_data_out[47]
*221 la_data_out[48]
*222 la_data_out[49]
*223 la_data_out[4]
*224 la_data_out[50]
*225 la_data_out[51]
*226 la_data_out[52]
*227 la_data_out[53]
*228 la_data_out[54]
*229 la_data_out[55]
*230 la_data_out[56]
*231 la_data_out[57]
*232 la_data_out[58]
*233 la_data_out[59]
*234 la_data_out[5]
*235 la_data_out[60]
*236 la_data_out[61]
*237 la_data_out[62]
*238 la_data_out[63]
*239 la_data_out[6]
*240 la_data_out[7]
*241 la_data_out[8]
*242 la_data_out[9]
*243 la_oenb[0]
*244 la_oenb[10]
*245 la_oenb[11]
*246 la_oenb[12]
*247 la_oenb[13]
*248 la_oenb[14]
*249 la_oenb[15]
*250 la_oenb[16]
*251 la_oenb[17]
*252 la_oenb[18]
*253 la_oenb[19]
*254 la_oenb[1]
*255 la_oenb[20]
*256 la_oenb[21]
*257 la_oenb[22]
*258 la_oenb[23]
*259 la_oenb[24]
*260 la_oenb[25]
*261 la_oenb[26]
*262 la_oenb[27]
*263 la_oenb[28]
*264 la_oenb[29]
*265 la_oenb[2]
*266 la_oenb[30]
*267 la_oenb[31]
*268 la_oenb[32]
*269 la_oenb[33]
*270 la_oenb[34]
*271 la_oenb[35]
*272 la_oenb[36]
*273 la_oenb[37]
*274 la_oenb[38]
*275 la_oenb[39]
*276 la_oenb[3]
*277 la_oenb[40]
*278 la_oenb[41]
*279 la_oenb[42]
*280 la_oenb[43]
*281 la_oenb[44]
*282 la_oenb[45]
*283 la_oenb[46]
*284 la_oenb[47]
*285 la_oenb[48]
*286 la_oenb[49]
*287 la_oenb[4]
*288 la_oenb[50]
*289 la_oenb[51]
*290 la_oenb[52]
*291 la_oenb[53]
*292 la_oenb[54]
*293 la_oenb[55]
*294 la_oenb[56]
*295 la_oenb[57]
*296 la_oenb[58]
*297 la_oenb[59]
*298 la_oenb[5]
*299 la_oenb[60]
*300 la_oenb[61]
*301 la_oenb[62]
*302 la_oenb[63]
*303 la_oenb[6]
*304 la_oenb[7]
*305 la_oenb[8]
*306 la_oenb[9]
*307 user_clock2
*308 user_irq[0]
*309 user_irq[1]
*310 user_irq[2]
*313 wb_clk_i
*314 wb_rst_i
*315 wbs_ack_o
*316 wbs_adr_i[0]
*317 wbs_adr_i[10]
*318 wbs_adr_i[11]
*319 wbs_adr_i[12]
*320 wbs_adr_i[13]
*321 wbs_adr_i[14]
*322 wbs_adr_i[15]
*323 wbs_adr_i[16]
*324 wbs_adr_i[17]
*325 wbs_adr_i[18]
*326 wbs_adr_i[19]
*327 wbs_adr_i[1]
*328 wbs_adr_i[20]
*329 wbs_adr_i[21]
*330 wbs_adr_i[22]
*331 wbs_adr_i[23]
*332 wbs_adr_i[24]
*333 wbs_adr_i[25]
*334 wbs_adr_i[26]
*335 wbs_adr_i[27]
*336 wbs_adr_i[28]
*337 wbs_adr_i[29]
*338 wbs_adr_i[2]
*339 wbs_adr_i[30]
*340 wbs_adr_i[31]
*341 wbs_adr_i[3]
*342 wbs_adr_i[4]
*343 wbs_adr_i[5]
*344 wbs_adr_i[6]
*345 wbs_adr_i[7]
*346 wbs_adr_i[8]
*347 wbs_adr_i[9]
*348 wbs_cyc_i
*349 wbs_dat_i[0]
*350 wbs_dat_i[10]
*351 wbs_dat_i[11]
*352 wbs_dat_i[12]
*353 wbs_dat_i[13]
*354 wbs_dat_i[14]
*355 wbs_dat_i[15]
*356 wbs_dat_i[16]
*357 wbs_dat_i[17]
*358 wbs_dat_i[18]
*359 wbs_dat_i[19]
*360 wbs_dat_i[1]
*361 wbs_dat_i[20]
*362 wbs_dat_i[21]
*363 wbs_dat_i[22]
*364 wbs_dat_i[23]
*365 wbs_dat_i[24]
*366 wbs_dat_i[25]
*367 wbs_dat_i[26]
*368 wbs_dat_i[27]
*369 wbs_dat_i[28]
*370 wbs_dat_i[29]
*371 wbs_dat_i[2]
*372 wbs_dat_i[30]
*373 wbs_dat_i[31]
*374 wbs_dat_i[3]
*375 wbs_dat_i[4]
*376 wbs_dat_i[5]
*377 wbs_dat_i[6]
*378 wbs_dat_i[7]
*379 wbs_dat_i[8]
*380 wbs_dat_i[9]
*381 wbs_dat_o[0]
*382 wbs_dat_o[10]
*383 wbs_dat_o[11]
*384 wbs_dat_o[12]
*385 wbs_dat_o[13]
*386 wbs_dat_o[14]
*387 wbs_dat_o[15]
*388 wbs_dat_o[16]
*389 wbs_dat_o[17]
*390 wbs_dat_o[18]
*391 wbs_dat_o[19]
*392 wbs_dat_o[1]
*393 wbs_dat_o[20]
*394 wbs_dat_o[21]
*395 wbs_dat_o[22]
*396 wbs_dat_o[23]
*397 wbs_dat_o[24]
*398 wbs_dat_o[25]
*399 wbs_dat_o[26]
*400 wbs_dat_o[27]
*401 wbs_dat_o[28]
*402 wbs_dat_o[29]
*403 wbs_dat_o[2]
*404 wbs_dat_o[30]
*405 wbs_dat_o[31]
*406 wbs_dat_o[3]
*407 wbs_dat_o[4]
*408 wbs_dat_o[5]
*409 wbs_dat_o[6]
*410 wbs_dat_o[7]
*411 wbs_dat_o[8]
*412 wbs_dat_o[9]
*413 wbs_sel_i[0]
*414 wbs_sel_i[1]
*415 wbs_sel_i[2]
*416 wbs_sel_i[3]
*417 wbs_stb_i
*418 wbs_we_i
*419 mprj

*PORTS
io_in[0] I
io_in[10] I
io_in[11] I
io_in[12] I
io_in[13] I
io_in[14] I
io_in[15] I
io_in[16] I
io_in[17] I
io_in[18] I
io_in[19] I
io_in[1] I
io_in[20] I
io_in[21] I
io_in[22] I
io_in[23] I
io_in[24] I
io_in[25] I
io_in[26] I
io_in[27] I
io_in[28] I
io_in[29] I
io_in[2] I
io_in[30] I
io_in[31] I
io_in[32] I
io_in[33] I
io_in[34] I
io_in[35] I
io_in[36] I
io_in[37] I
io_in[3] I
io_in[4] I
io_in[5] I
io_in[6] I
io_in[7] I
io_in[8] I
io_in[9] I
io_oeb[0] O
io_oeb[10] O
io_oeb[11] O
io_oeb[12] O
io_oeb[13] O
io_oeb[14] O
io_oeb[15] O
io_oeb[16] O
io_oeb[17] O
io_oeb[18] O
io_oeb[19] O
io_oeb[1] O
io_oeb[20] O
io_oeb[21] O
io_oeb[22] O
io_oeb[23] O
io_oeb[24] O
io_oeb[25] O
io_oeb[26] O
io_oeb[27] O
io_oeb[28] O
io_oeb[29] O
io_oeb[2] O
io_oeb[30] O
io_oeb[31] O
io_oeb[32] O
io_oeb[33] O
io_oeb[34] O
io_oeb[35] O
io_oeb[36] O
io_oeb[37] O
io_oeb[3] O
io_oeb[4] O
io_oeb[5] O
io_oeb[6] O
io_oeb[7] O
io_oeb[8] O
io_oeb[9] O
io_out[0] O
io_out[10] O
io_out[11] O
io_out[12] O
io_out[13] O
io_out[14] O
io_out[15] O
io_out[16] O
io_out[17] O
io_out[18] O
io_out[19] O
io_out[1] O
io_out[20] O
io_out[21] O
io_out[22] O
io_out[23] O
io_out[24] O
io_out[25] O
io_out[26] O
io_out[27] O
io_out[28] O
io_out[29] O
io_out[2] O
io_out[30] O
io_out[31] O
io_out[32] O
io_out[33] O
io_out[34] O
io_out[35] O
io_out[36] O
io_out[37] O
io_out[3] O
io_out[4] O
io_out[5] O
io_out[6] O
io_out[7] O
io_out[8] O
io_out[9] O
la_data_in[0] I
la_data_in[10] I
la_data_in[11] I
la_data_in[12] I
la_data_in[13] I
la_data_in[14] I
la_data_in[15] I
la_data_in[16] I
la_data_in[17] I
la_data_in[18] I
la_data_in[19] I
la_data_in[1] I
la_data_in[20] I
la_data_in[21] I
la_data_in[22] I
la_data_in[23] I
la_data_in[24] I
la_data_in[25] I
la_data_in[26] I
la_data_in[27] I
la_data_in[28] I
la_data_in[29] I
la_data_in[2] I
la_data_in[30] I
la_data_in[31] I
la_data_in[32] I
la_data_in[33] I
la_data_in[34] I
la_data_in[35] I
la_data_in[36] I
la_data_in[37] I
la_data_in[38] I
la_data_in[39] I
la_data_in[3] I
la_data_in[40] I
la_data_in[41] I
la_data_in[42] I
la_data_in[43] I
la_data_in[44] I
la_data_in[45] I
la_data_in[46] I
la_data_in[47] I
la_data_in[48] I
la_data_in[49] I
la_data_in[4] I
la_data_in[50] I
la_data_in[51] I
la_data_in[52] I
la_data_in[53] I
la_data_in[54] I
la_data_in[55] I
la_data_in[56] I
la_data_in[57] I
la_data_in[58] I
la_data_in[59] I
la_data_in[5] I
la_data_in[60] I
la_data_in[61] I
la_data_in[62] I
la_data_in[63] I
la_data_in[6] I
la_data_in[7] I
la_data_in[8] I
la_data_in[9] I
la_data_out[0] O
la_data_out[10] O
la_data_out[11] O
la_data_out[12] O
la_data_out[13] O
la_data_out[14] O
la_data_out[15] O
la_data_out[16] O
la_data_out[17] O
la_data_out[18] O
la_data_out[19] O
la_data_out[1] O
la_data_out[20] O
la_data_out[21] O
la_data_out[22] O
la_data_out[23] O
la_data_out[24] O
la_data_out[25] O
la_data_out[26] O
la_data_out[27] O
la_data_out[28] O
la_data_out[29] O
la_data_out[2] O
la_data_out[30] O
la_data_out[31] O
la_data_out[32] O
la_data_out[33] O
la_data_out[34] O
la_data_out[35] O
la_data_out[36] O
la_data_out[37] O
la_data_out[38] O
la_data_out[39] O
la_data_out[3] O
la_data_out[40] O
la_data_out[41] O
la_data_out[42] O
la_data_out[43] O
la_data_out[44] O
la_data_out[45] O
la_data_out[46] O
la_data_out[47] O
la_data_out[48] O
la_data_out[49] O
la_data_out[4] O
la_data_out[50] O
la_data_out[51] O
la_data_out[52] O
la_data_out[53] O
la_data_out[54] O
la_data_out[55] O
la_data_out[56] O
la_data_out[57] O
la_data_out[58] O
la_data_out[59] O
la_data_out[5] O
la_data_out[60] O
la_data_out[61] O
la_data_out[62] O
la_data_out[63] O
la_data_out[6] O
la_data_out[7] O
la_data_out[8] O
la_data_out[9] O
la_oenb[0] I
la_oenb[10] I
la_oenb[11] I
la_oenb[12] I
la_oenb[13] I
la_oenb[14] I
la_oenb[15] I
la_oenb[16] I
la_oenb[17] I
la_oenb[18] I
la_oenb[19] I
la_oenb[1] I
la_oenb[20] I
la_oenb[21] I
la_oenb[22] I
la_oenb[23] I
la_oenb[24] I
la_oenb[25] I
la_oenb[26] I
la_oenb[27] I
la_oenb[28] I
la_oenb[29] I
la_oenb[2] I
la_oenb[30] I
la_oenb[31] I
la_oenb[32] I
la_oenb[33] I
la_oenb[34] I
la_oenb[35] I
la_oenb[36] I
la_oenb[37] I
la_oenb[38] I
la_oenb[39] I
la_oenb[3] I
la_oenb[40] I
la_oenb[41] I
la_oenb[42] I
la_oenb[43] I
la_oenb[44] I
la_oenb[45] I
la_oenb[46] I
la_oenb[47] I
la_oenb[48] I
la_oenb[49] I
la_oenb[4] I
la_oenb[50] I
la_oenb[51] I
la_oenb[52] I
la_oenb[53] I
la_oenb[54] I
la_oenb[55] I
la_oenb[56] I
la_oenb[57] I
la_oenb[58] I
la_oenb[59] I
la_oenb[5] I
la_oenb[60] I
la_oenb[61] I
la_oenb[62] I
la_oenb[63] I
la_oenb[6] I
la_oenb[7] I
la_oenb[8] I
la_oenb[9] I
user_clock2 I
user_irq[0] O
user_irq[1] O
user_irq[2] O
wb_clk_i I
wb_rst_i I
wbs_ack_o O
wbs_adr_i[0] I
wbs_adr_i[10] I
wbs_adr_i[11] I
wbs_adr_i[12] I
wbs_adr_i[13] I
wbs_adr_i[14] I
wbs_adr_i[15] I
wbs_adr_i[16] I
wbs_adr_i[17] I
wbs_adr_i[18] I
wbs_adr_i[19] I
wbs_adr_i[1] I
wbs_adr_i[20] I
wbs_adr_i[21] I
wbs_adr_i[22] I
wbs_adr_i[23] I
wbs_adr_i[24] I
wbs_adr_i[25] I
wbs_adr_i[26] I
wbs_adr_i[27] I
wbs_adr_i[28] I
wbs_adr_i[29] I
wbs_adr_i[2] I
wbs_adr_i[30] I
wbs_adr_i[31] I
wbs_adr_i[3] I
wbs_adr_i[4] I
wbs_adr_i[5] I
wbs_adr_i[6] I
wbs_adr_i[7] I
wbs_adr_i[8] I
wbs_adr_i[9] I
wbs_cyc_i I
wbs_dat_i[0] I
wbs_dat_i[10] I
wbs_dat_i[11] I
wbs_dat_i[12] I
wbs_dat_i[13] I
wbs_dat_i[14] I
wbs_dat_i[15] I
wbs_dat_i[16] I
wbs_dat_i[17] I
wbs_dat_i[18] I
wbs_dat_i[19] I
wbs_dat_i[1] I
wbs_dat_i[20] I
wbs_dat_i[21] I
wbs_dat_i[22] I
wbs_dat_i[23] I
wbs_dat_i[24] I
wbs_dat_i[25] I
wbs_dat_i[26] I
wbs_dat_i[27] I
wbs_dat_i[28] I
wbs_dat_i[29] I
wbs_dat_i[2] I
wbs_dat_i[30] I
wbs_dat_i[31] I
wbs_dat_i[3] I
wbs_dat_i[4] I
wbs_dat_i[5] I
wbs_dat_i[6] I
wbs_dat_i[7] I
wbs_dat_i[8] I
wbs_dat_i[9] I
wbs_dat_o[0] O
wbs_dat_o[10] O
wbs_dat_o[11] O
wbs_dat_o[12] O
wbs_dat_o[13] O
wbs_dat_o[14] O
wbs_dat_o[15] O
wbs_dat_o[16] O
wbs_dat_o[17] O
wbs_dat_o[18] O
wbs_dat_o[19] O
wbs_dat_o[1] O
wbs_dat_o[20] O
wbs_dat_o[21] O
wbs_dat_o[22] O
wbs_dat_o[23] O
wbs_dat_o[24] O
wbs_dat_o[25] O
wbs_dat_o[26] O
wbs_dat_o[27] O
wbs_dat_o[28] O
wbs_dat_o[29] O
wbs_dat_o[2] O
wbs_dat_o[30] O
wbs_dat_o[31] O
wbs_dat_o[3] O
wbs_dat_o[4] O
wbs_dat_o[5] O
wbs_dat_o[6] O
wbs_dat_o[7] O
wbs_dat_o[8] O
wbs_dat_o[9] O
wbs_sel_i[0] I
wbs_sel_i[1] I
wbs_sel_i[2] I
wbs_sel_i[3] I
wbs_stb_i I
wbs_we_i I

*D_NET *1 0.0149247
*CONN
*P io_in[0] I
*I *419:io_in[0] I *D user_proj_example
*CAP
1 io_in[0] 0.00265908
2 *419:io_in[0] 0.00480329
3 *1:11 0.00746237
*RES
1 io_in[0] *1:11 24.01 
2 *1:11 *419:io_in[0] 35.302 
*END

*D_NET *12 0.0155656
*CONN
*P io_in[1] I
*I *419:io_in[1] I *D user_proj_example
*CAP
1 io_in[1] 0.00564152
2 *419:io_in[1] 0.00214129
3 *12:7 0.00778281
*RES
1 io_in[1] *12:7 44.666 
2 *12:7 *419:io_in[1] 20.422 
*END

*D_NET *23 0.0171424
*CONN
*P io_in[2] I
*I *419:io_in[2] I *D user_proj_example
*CAP
1 io_in[2] 0.00578598
2 *419:io_in[2] 0.00278521
3 *23:7 0.00857119
*RES
1 io_in[2] *23:7 45.73 
2 *23:7 *419:io_in[2] 24.83 
*END

*D_NET *24 0.00693415
*CONN
*P io_in[30] I
*I *419:io_in[8] I *D user_proj_example
*CAP
1 io_in[30] 0.00346707
2 *419:io_in[8] 0.00346707
*RES
1 io_in[30] *419:io_in[8] 31.952 
*END

*D_NET *25 0.0056923
*CONN
*P io_in[31] I
*I *419:io_in[9] I *D user_proj_example
*CAP
1 io_in[31] 0.00284615
2 *419:io_in[9] 0.00284615
*RES
1 io_in[31] *419:io_in[9] 29.178 
*END

*D_NET *26 0.00507805
*CONN
*P io_in[32] I
*I *419:io_in[10] I *D user_proj_example
*CAP
1 io_in[32] 0.00253903
2 *419:io_in[10] 0.00253903
*RES
1 io_in[32] *419:io_in[10] 27.506 
*END

*D_NET *27 0.00447056
*CONN
*P io_in[33] I
*I *419:io_in[11] I *D user_proj_example
*CAP
1 io_in[33] 0.00223528
2 *419:io_in[11] 0.00223528
*RES
1 io_in[33] *419:io_in[11] 25.074 
*END

*D_NET *28 0.00415192
*CONN
*P io_in[34] I
*I *419:io_in[12] I *D user_proj_example
*CAP
1 io_in[34] 0.00207596
2 *419:io_in[12] 0.00207596
*RES
1 io_in[34] *419:io_in[12] 23.288 
*END

*D_NET *29 0.00339015
*CONN
*P io_in[35] I
*I *419:io_in[13] I *D user_proj_example
*CAP
1 io_in[35] 0.00169508
2 *419:io_in[13] 0.00169508
*RES
1 io_in[35] *419:io_in[13] 21.464 
*END

*D_NET *30 0.00315788
*CONN
*P io_in[36] I
*I *419:io_in[14] I *D user_proj_example
*CAP
1 io_in[36] 0.00157894
2 *419:io_in[14] 0.00157894
*RES
1 io_in[36] *419:io_in[14] 20.058 
*END

*D_NET *31 0.00268389
*CONN
*P io_in[37] I
*I *419:io_in[15] I *D user_proj_example
*CAP
1 io_in[37] 0.00134194
2 *419:io_in[15] 0.00134194
*RES
1 io_in[37] *419:io_in[15] 18.386 
*END

*D_NET *32 0.0209333
*CONN
*P io_in[3] I
*I *419:io_in[3] I *D user_proj_example
*CAP
1 io_in[3] 0.00579966
2 *419:io_in[3] 0.00310722
3 *32:7 0.00890689
4 *419:io_in[3] *61:11 0.0011714
5 *419:io_in[3] *108:11 0.00194814
*RES
1 io_in[3] *32:7 45.73 
2 *32:7 *419:io_in[3] 30.302 
*END

*D_NET *33 0.025488
*CONN
*P io_in[4] I
*I *419:io_in[4] I *D user_proj_example
*CAP
1 io_in[4] 0.00576534
2 *419:io_in[4] 0.00316576
3 *33:7 0.00893111
4 *419:io_in[4] *70:11 0.00343035
5 *419:io_in[4] *109:11 0.0041954
*RES
1 io_in[4] *33:7 45.578 
2 *33:7 *419:io_in[4] 35.926 
*END

*D_NET *34 0.0259909
*CONN
*P io_in[5] I
*I *419:io_in[5] I *D user_proj_example
*CAP
1 io_in[5] 0.00579966
2 *419:io_in[5] 0.0035261
3 *34:7 0.00932577
4 *419:io_in[5] *71:11 0.00572078
5 *419:io_in[5] *110:11 0.00161858
*RES
1 io_in[5] *34:7 45.73 
2 *34:7 *419:io_in[5] 41.246 
*END

*D_NET *35 0.0305787
*CONN
*P io_in[6] I
*I *419:io_in[6] I *D user_proj_example
*CAP
1 io_in[6] 0.00573743
2 *419:io_in[6] 0.0032453
3 *35:7 0.00898272
4 *419:io_in[6] *72:11 0.00379912
5 *419:io_in[6] *111:9 0.00878848
6 *35:7 *110:11 2.56154e-05
*RES
1 io_in[6] *35:7 45.426 
2 *35:7 *419:io_in[6] 47.022 
*END

*D_NET *36 0.034711
*CONN
*P io_in[7] I
*I *419:io_in[7] I *D user_proj_example
*CAP
1 io_in[7] 0.0057447
2 *419:io_in[7] 0.000517446
3 *36:11 0.00371713
4 *36:7 0.00894439
5 *36:11 *73:11 0.00272421
6 *36:11 *111:9 0.00207637
7 *36:11 *112:9 0.0109868
*RES
1 io_in[7] *36:7 45.426 
2 *36:7 *36:11 48.96 
3 *36:11 *419:io_in[7] 3.534 
*END

*D_NET *39 0.0151871
*CONN
*P io_oeb[0] O
*I *419:io_oeb[0] O *D user_proj_example
*CAP
1 io_oeb[0] 0.0034746
2 *419:io_oeb[0] 0.00411897
3 *39:11 0.00759357
*RES
1 *419:io_oeb[0] *39:11 38.906 
2 *39:11 io_oeb[0] 24.206 
*END

*D_NET *50 0.0168389
*CONN
*P io_oeb[1] O
*I *419:io_oeb[1] O *D user_proj_example
*CAP
1 io_oeb[1] 0.00578598
2 *419:io_oeb[1] 0.00263345
3 *50:11 0.00841943
*RES
1 *419:io_oeb[1] *50:11 27.506 
2 *50:11 io_oeb[1] 41.23 
*END

*D_NET *61 0.0191061
*CONN
*P io_oeb[2] O
*I *419:io_oeb[2] O *D user_proj_example
*CAP
1 io_oeb[2] 0.00577494
2 *419:io_oeb[2] 0.00308962
3 *61:11 0.00886456
4 io_oeb[2] *99:11 8.5948e-06
5 *61:11 *99:11 0.000197035
6 *419:io_in[3] *61:11 0.0011714
*RES
1 *419:io_oeb[2] *61:11 33.13 
2 *61:11 io_oeb[2] 41.078 
*END

*D_NET *62 0.00585191
*CONN
*P io_oeb[30] O
*I *419:io_oeb[8] O *D user_proj_example
*CAP
1 io_oeb[30] 0.00292596
2 *419:io_oeb[8] 0.00292596
*RES
1 *419:io_oeb[8] io_oeb[30] 29.786 
*END

*D_NET *63 0.00493369
*CONN
*P io_oeb[31] O
*I *419:io_oeb[9] O *D user_proj_example
*CAP
1 io_oeb[31] 0.00246685
2 *419:io_oeb[9] 0.00246685
*RES
1 *419:io_oeb[9] io_oeb[31] 27.506 
*END

*D_NET *64 0.00478429
*CONN
*P io_oeb[32] O
*I *419:io_oeb[10] O *D user_proj_example
*CAP
1 io_oeb[32] 0.00239214
2 *419:io_oeb[10] 0.00239214
*RES
1 *419:io_oeb[10] io_oeb[32] 25.72 
*END

*D_NET *65 0.00420875
*CONN
*P io_oeb[33] O
*I *419:io_oeb[11] O *D user_proj_example
*CAP
1 io_oeb[33] 0.00210438
2 *419:io_oeb[11] 0.00210438
*RES
1 *419:io_oeb[11] io_oeb[33] 24.048 
*END

*D_NET *66 0.00419166
*CONN
*P io_oeb[34] O
*I *419:io_oeb[12] O *D user_proj_example
*CAP
1 io_oeb[34] 0.00209583
2 *419:io_oeb[12] 0.00209583
*RES
1 *419:io_oeb[12] io_oeb[34] 23.44 
*END

*D_NET *67 0.00328243
*CONN
*P io_oeb[35] O
*I *419:io_oeb[13] O *D user_proj_example
*CAP
1 io_oeb[35] 0.00164121
2 *419:io_oeb[13] 0.00164121
*RES
1 *419:io_oeb[13] io_oeb[35] 20.666 
*END

*D_NET *68 0.00253952
*CONN
*P io_oeb[36] O
*I *419:io_oeb[14] O *D user_proj_example
*CAP
1 io_oeb[36] 0.00126976
2 *419:io_oeb[14] 0.00126976
*RES
1 *419:io_oeb[14] io_oeb[36] 18.386 
*END

*D_NET *69 0.00235983
*CONN
*P io_oeb[37] O
*I *419:io_oeb[15] O *D user_proj_example
*CAP
1 io_oeb[37] 0.00117991
2 *419:io_oeb[15] 0.00117991
*RES
1 *419:io_oeb[15] io_oeb[37] 17.018 
*END

*D_NET *70 0.0240009
*CONN
*P io_oeb[3] O
*I *419:io_oeb[3] O *D user_proj_example
*CAP
1 io_oeb[3] 0.00579966
2 *419:io_oeb[3] 0.00316397
3 *70:11 0.00896363
4 *70:11 *108:11 0.00264326
5 *419:io_in[4] *70:11 0.00343035
*RES
1 *419:io_oeb[3] *70:11 38.45 
2 *70:11 io_oeb[3] 41.23 
*END

*D_NET *71 0.0285071
*CONN
*P io_oeb[4] O
*I *419:io_oeb[4] O *D user_proj_example
*CAP
1 io_oeb[4] 0.00576534
2 *419:io_oeb[4] 0.003115
3 *71:11 0.00888034
4 *71:11 *109:11 0.00502566
5 *419:io_in[5] *71:11 0.00572078
*RES
1 *419:io_oeb[4] *71:11 44.074 
2 *71:11 io_oeb[4] 41.078 
*END

*D_NET *72 0.0248665
*CONN
*P io_oeb[5] O
*I *419:io_oeb[5] O *D user_proj_example
*CAP
1 io_oeb[5] 0.00579965
2 *419:io_oeb[5] 0.00356308
3 *72:11 0.00936273
4 *72:11 *110:11 0.00180431
5 *72:11 *111:9 0.000537611
6 *419:io_in[6] *72:11 0.00379912
*RES
1 *419:io_oeb[5] *72:11 49.242 
2 *72:11 io_oeb[5] 41.23 
*END

*D_NET *73 0.0337054
*CONN
*P io_oeb[6] O
*I *419:io_oeb[6] O *D user_proj_example
*CAP
1 io_oeb[6] 0.00581334
2 *419:io_oeb[6] 0.000448806
3 *73:11 0.00889586
4 *73:7 0.00353132
5 *73:11 *111:9 0.00950434
6 *73:11 *112:9 0.00278747
7 *36:11 *73:11 0.00272421
*RES
1 *419:io_oeb[6] *73:7 7.73 
2 *73:7 *73:11 47.136 
3 *73:11 io_oeb[6] 41.23 
*END

*D_NET *74 0.0340579
*CONN
*P io_oeb[7] O
*I *419:io_oeb[7] O *D user_proj_example
*CAP
1 io_oeb[7] 0.00581334
2 *419:io_oeb[7] 0.000553323
3 *74:9 0.0105694
4 *74:7 0.00530937
5 *74:9 *112:9 0.0118125
*RES
1 *419:io_oeb[7] *74:7 7.73 
2 *74:7 *74:9 48.108 
3 *74:9 io_oeb[7] 45.73 
*END

*D_NET *77 0.0147482
*CONN
*P io_out[0] O
*I *419:io_out[0] O *D user_proj_example
*CAP
1 io_out[0] 0.00283484
2 *419:io_out[0] 0.00453926
3 *77:11 0.0073741
*RES
1 *419:io_out[0] *77:11 41.946 
2 *77:11 io_out[0] 19.494 
*END

*D_NET *88 0.0162198
*CONN
*P io_out[1] O
*I *419:io_out[1] O *D user_proj_example
*CAP
1 io_out[1] 0.00564152
2 *419:io_out[1] 0.00246837
3 *88:11 0.00810989
*RES
1 *419:io_out[1] *88:11 26.746 
2 *88:11 io_out[1] 40.166 
*END

*D_NET *99 0.0179221
*CONN
*P io_out[2] O
*I *419:io_out[2] O *D user_proj_example
*CAP
1 io_out[2] 0.00572407
2 *419:io_out[2] 0.00313417
3 *99:11 0.00885824
4 io_oeb[2] *99:11 8.5948e-06
5 *61:11 *99:11 0.000197035
*RES
1 *419:io_out[2] *99:11 31.61 
2 *99:11 io_out[2] 40.774 
*END

*D_NET *100 0.00587611
*CONN
*P io_out[30] O
*I *419:io_out[8] O *D user_proj_example
*CAP
1 io_out[30] 0.00293806
2 *419:io_out[8] 0.00293806
*RES
1 *419:io_out[8] io_out[30] 30.546 
*END

*D_NET *101 0.00539244
*CONN
*P io_out[31] O
*I *419:io_out[9] O *D user_proj_example
*CAP
1 io_out[31] 0.00269622
2 *419:io_out[9] 0.00269622
*RES
1 *419:io_out[9] io_out[31] 28.57 
*END

*D_NET *102 0.00492226
*CONN
*P io_out[32] O
*I *419:io_out[10] O *D user_proj_example
*CAP
1 io_out[32] 0.00246113
2 *419:io_out[10] 0.00246113
*RES
1 *419:io_out[10] io_out[32] 26.29 
*END

*D_NET *103 0.00476811
*CONN
*P io_out[33] O
*I *419:io_out[11] O *D user_proj_example
*CAP
1 io_out[33] 0.00238405
2 *419:io_out[11] 0.00238405
*RES
1 *419:io_out[11] io_out[33] 25.872 
*END

*D_NET *104 0.00388469
*CONN
*P io_out[34] O
*I *419:io_out[12] O *D user_proj_example
*CAP
1 io_out[34] 0.00194235
2 *419:io_out[12] 0.00194235
*RES
1 *419:io_out[12] io_out[34] 22.68 
*END

*D_NET *105 0.00341069
*CONN
*P io_out[35] O
*I *419:io_out[13] O *D user_proj_example
*CAP
1 io_out[35] 0.00170535
2 *419:io_out[13] 0.00170535
*RES
1 *419:io_out[13] io_out[35] 21.008 
*END

*D_NET *106 0.00282296
*CONN
*P io_out[36] O
*I *419:io_out[14] O *D user_proj_example
*CAP
1 io_out[36] 0.00141148
2 *419:io_out[14] 0.00141148
*RES
1 *419:io_out[14] io_out[36] 19.45 
*END

*D_NET *107 0.0022203
*CONN
*P io_out[37] O
*I *419:io_out[15] O *D user_proj_example
*CAP
1 io_out[37] 0.00111015
2 *419:io_out[15] 0.00111015
*RES
1 *419:io_out[15] io_out[37] 17.17 
*END

*D_NET *108 0.0223492
*CONN
*P io_out[3] O
*I *419:io_out[3] O *D user_proj_example
*CAP
1 io_out[3] 0.00576534
2 *419:io_out[3] 0.00311354
3 *108:11 0.00887888
4 *419:io_in[3] *108:11 0.00194814
5 *70:11 *108:11 0.00264326
*RES
1 *419:io_out[3] *108:11 36.778 
2 *108:11 io_out[3] 41.078 
*END

*D_NET *109 0.0269923
*CONN
*P io_out[4] O
*I *419:io_out[4] O *D user_proj_example
*CAP
1 io_out[4] 0.00579966
2 *419:io_out[4] 0.00308598
3 *109:11 0.00888564
4 *419:io_in[4] *109:11 0.0041954
5 *71:11 *109:11 0.00502566
*RES
1 *419:io_out[4] *109:11 42.098 
2 *109:11 io_out[4] 41.23 
*END

*D_NET *110 0.0233073
*CONN
*P io_out[5] O
*I *419:io_out[5] O *D user_proj_example
*CAP
1 io_out[5] 0.00570343
2 *419:io_out[5] 0.00422595
3 *110:11 0.00992938
4 *419:io_in[5] *110:11 0.00161858
5 *35:7 *110:11 2.56154e-05
6 *72:11 *110:11 0.00180431
*RES
1 *419:io_out[5] *110:11 48.178 
2 *110:11 io_out[5] 40.622 
*END

*D_NET *111 0.0379449
*CONN
*P io_out[6] O
*I *419:io_out[6] O *D user_proj_example
*CAP
1 io_out[6] 0.00577902
2 *419:io_out[6] 0.00274003
3 *111:9 0.00851905
4 *419:io_in[6] *111:9 0.00878848
5 *36:11 *111:9 0.00207637
6 *72:11 *111:9 0.000537611
7 *73:11 *111:9 0.00950434
*RES
1 *419:io_out[6] *111:9 48.694 
2 *111:9 io_out[6] 45.578 
*END

*D_NET *112 0.0451437
*CONN
*P io_out[7] O
*I *419:io_out[7] O *D user_proj_example
*CAP
1 io_out[7] 0.00708172
2 *419:io_out[7] 0.000483126
3 *112:9 0.00929538
4 *112:7 0.00269679
5 *36:11 *112:9 0.0109868
6 *73:11 *112:9 0.00278747
7 *74:9 *112:9 0.0118125
*RES
1 *419:io_out[7] *112:7 7.882 
2 *112:7 *112:9 46.284 
3 *112:9 io_out[7] 45.578 
*END

*D_NET *115 0.0072178
*CONN
*P la_data_in[0] I
*I *419:la_data_in[0] I *D user_proj_example
*CAP
1 la_data_in[0] 0.00141744
2 *419:la_data_in[0] 0.00141744
3 *419:la_data_in[0] la_data_out[0] 0.00144508
4 *419:la_data_in[0] wbs_dat_o[30] 0
5 *419:la_data_in[0] *419:la_oenb[0] 0.00293786
6 *419:la_data_in[0] *419:wbs_adr_i[31] 0
7 *419:la_data_in[0] *419:wbs_dat_i[30] 0
*RES
1 la_data_in[0] *419:la_data_in[0] 26.1 
*END

*D_NET *116 0.0109531
*CONN
*P la_data_in[10] I
*I *419:la_data_in[10] I *D user_proj_example
*CAP
1 la_data_in[10] 0.00208513
2 *419:la_data_in[10] 0.00208513
3 *419:la_data_in[10] *419:la_data_in[8] 1.51302e-05
4 *419:la_data_in[10] *419:la_oenb[10] 0.00102564
5 *419:la_data_in[10] *419:la_oenb[7] 0
6 *419:la_data_in[10] *419:la_oenb[9] 0.00574203
*RES
1 la_data_in[10] *419:la_data_in[10] 31.268 
*END

*D_NET *117 0.00776964
*CONN
*P la_data_in[11] I
*I *419:la_data_in[11] I *D user_proj_example
*CAP
1 la_data_in[11] 0.002109
2 *419:la_data_in[11] 0.002109
3 *419:la_data_in[11] la_data_out[10] 0.00157359
4 *419:la_data_in[11] la_data_out[12] 0.000709567
5 *419:la_data_in[11] la_data_out[13] 5.26278e-05
6 *419:la_data_in[11] *419:la_data_in[13] 0.00121586
*RES
1 la_data_in[11] *419:la_data_in[11] 30.736 
*END

*D_NET *118 0.0151655
*CONN
*P la_data_in[12] I
*I *419:la_data_in[12] I *D user_proj_example
*CAP
1 la_data_in[12] 0.000814979
2 *419:la_data_in[12] 0.000814979
3 *419:la_data_in[12] la_data_out[14] 0.000348277
4 *419:la_data_in[12] *419:la_data_in[14] 0.00051075
5 *419:la_data_in[12] *419:la_oenb[10] 0.00143834
6 *419:la_data_in[12] *419:la_oenb[11] 0.00580474
7 *419:la_data_in[12] *419:la_oenb[12] 0.00540614
8 *419:la_data_in[12] *419:la_oenb[9] 2.73273e-05
*RES
1 la_data_in[12] *419:la_data_in[12] 31.572 
*END

*D_NET *119 0.0085433
*CONN
*P la_data_in[13] I
*I *419:la_data_in[13] I *D user_proj_example
*CAP
1 la_data_in[13] 0.00199101
2 *419:la_data_in[13] 0.00199101
3 *419:la_data_in[13] la_data_out[12] 0.00265114
4 *419:la_data_in[13] la_data_out[13] 0.000146553
5 *419:la_data_in[13] la_data_out[15] 0
6 *419:la_data_in[13] *419:la_data_in[15] 0.000547718
7 *419:la_data_in[13] *419:la_oenb[15] 0
8 *419:la_data_in[11] *419:la_data_in[13] 0.00121586
*RES
1 la_data_in[13] *419:la_data_in[13] 31.192 
*END

*D_NET *120 0.0150626
*CONN
*P la_data_in[14] I
*I *419:la_data_in[14] I *D user_proj_example
*CAP
1 la_data_in[14] 0.00096782
2 *419:la_data_in[14] 0.00096782
3 *419:la_data_in[14] la_data_out[13] 0.00368018
4 *419:la_data_in[14] la_data_out[14] 0.00669466
5 *419:la_data_in[14] *419:la_data_in[16] 0.00171947
6 *419:la_data_in[14] *419:la_oenb[11] 0.000341425
7 *419:la_data_in[14] *419:la_oenb[15] 0.000173193
8 *419:la_data_in[14] *419:la_oenb[16] 7.24161e-06
9 *419:la_data_in[12] *419:la_data_in[14] 0.00051075
*RES
1 la_data_in[14] *419:la_data_in[14] 31.724 
*END

*D_NET *121 0.00944019
*CONN
*P la_data_in[15] I
*I *419:la_data_in[15] I *D user_proj_example
*CAP
1 la_data_in[15] 0.00221831
2 *419:la_data_in[15] 0.00221831
3 *419:la_data_in[15] la_data_out[13] 0.00100243
4 *419:la_data_in[15] la_data_out[17] 0.000970903
5 *419:la_data_in[15] *419:la_oenb[15] 0.00229249
6 *419:la_data_in[15] *419:la_oenb[17] 0.000190028
7 *419:la_data_in[13] *419:la_data_in[15] 0.000547718
*RES
1 la_data_in[15] *419:la_data_in[15] 33.472 
*END

*D_NET *122 0.0150572
*CONN
*P la_data_in[16] I
*I *419:la_data_in[16] I *D user_proj_example
*CAP
1 la_data_in[16] 0.000826831
2 *419:la_data_in[16] 0.000826831
3 *419:la_data_in[16] la_data_out[13] 7.45328e-07
4 *419:la_data_in[16] la_data_out[14] 0.000143649
5 *419:la_data_in[16] la_data_out[18] 0
6 *419:la_data_in[16] *419:la_data_in[17] 0.00390166
7 *419:la_data_in[16] *419:la_data_in[18] 0.00215608
8 *419:la_data_in[16] *419:la_oenb[15] 0.00402738
9 *419:la_data_in[16] *419:la_oenb[16] 0.000943836
10 *419:la_data_in[16] *419:la_oenb[17] 0.00051075
11 *419:la_data_in[14] *419:la_data_in[16] 0.00171947
*RES
1 la_data_in[16] *419:la_data_in[16] 33.016 
*END

*D_NET *123 0.0146431
*CONN
*P la_data_in[17] I
*I *419:la_data_in[17] I *D user_proj_example
*CAP
1 la_data_in[17] 0.000827944
2 *419:la_data_in[17] 0.000827944
3 *419:la_data_in[17] la_data_out[14] 4.58601e-06
4 *419:la_data_in[17] la_data_out[17] 0.000404982
5 *419:la_data_in[17] *419:la_data_in[18] 0.00145007
6 *419:la_data_in[17] *419:la_oenb[16] 0.00688343
7 *419:la_data_in[17] *419:la_oenb[19] 0.000342519
8 *419:la_data_in[16] *419:la_data_in[17] 0.00390166
*RES
1 la_data_in[17] *419:la_data_in[17] 33.472 
*END

*D_NET *124 0.0165492
*CONN
*P la_data_in[18] I
*I *419:la_data_in[18] I *D user_proj_example
*CAP
1 la_data_in[18] 0.000758718
2 *419:la_data_in[18] 0.000758718
3 *419:la_data_in[18] *419:la_data_in[19] 0.00049168