*SPEF "ieee 1481-1999"
*DESIGN "user_proj_example"
*DATE "11:11:11 Fri 11 11, 1111"
*VENDOR "OpenRCX"
*PROGRAM "Parallel Extraction"
*VERSION "1.0"
*DESIGN_FLOW "NAME_SCOPE LOCAL" "PIN_CAP NONE"
*DIVIDER /
*DELIMITER :
*BUS_DELIMITER []
*T_UNIT 1 NS
*C_UNIT 1 PF
*R_UNIT 1 OHM
*L_UNIT 1 HENRY

*NAME_MAP
*1 io_in[0]
*2 io_in[10]
*3 io_in[11]
*4 io_in[12]
*5 io_in[13]
*6 io_in[14]
*7 io_in[15]
*8 io_in[1]
*9 io_in[2]
*10 io_in[3]
*11 io_in[4]
*12 io_in[5]
*13 io_in[6]
*14 io_in[7]
*15 io_in[8]
*16 io_in[9]
*17 net62
*18 net72
*19 net73
*20 net74
*21 net75
*22 net76
*23 net77
*24 net63
*25 net64
*26 net65
*27 net66
*28 net67
*29 net68
*30 net69
*31 net70
*32 net71
*33 io_out[0]
*34 io_out[10]
*35 io_out[11]
*36 io_out[12]
*37 io_out[13]
*38 io_out[14]
*39 io_out[15]
*40 io_out[1]
*41 io_out[2]
*42 io_out[3]
*43 io_out[4]
*44 io_out[5]
*45 io_out[6]
*46 io_out[7]
*47 io_out[8]
*48 io_out[9]
*51 wb_clk_i
*52 wb_rst_i
*53 wbs_sel_i[0]
*54 wbs_sel_i[1]
*55 wbs_sel_i[2]
*56 wbs_sel_i[3]
*57 _0000_
*58 _0001_
*59 _0002_
*60 _0003_
*61 _0004_
*62 _0005_
*63 _0006_
*64 _0007_
*65 _0008_
*66 _0009_
*67 _0010_
*68 _0011_
*69 _0012_
*70 _0013_
*71 _0014_
*72 _0015_
*73 _0016_
*74 _0017_
*75 _0018_
*76 _0019_
*77 _0020_
*78 _0021_
*79 _0022_
*80 _0023_
*81 _0024_
*82 _0025_
*83 _0026_
*84 _0027_
*85 _0028_
*86 _0029_
*87 _0030_
*88 _0031_
*89 _0032_
*90 _0033_
*91 _0034_
*92 _0035_
*93 _0036_
*94 _0037_
*95 _0038_
*96 _0039_
*97 _0040_
*98 _0041_
*99 _0042_
*100 _0043_
*101 _0044_
*102 _0045_
*103 _0046_
*104 _0047_
*105 _0048_
*106 _0049_
*107 _0050_
*108 _0051_
*109 _0052_
*110 _0053_
*111 _0054_
*112 _0055_
*113 _0056_
*114 _0057_
*115 _0058_
*116 _0059_
*117 _0060_
*118 _0061_
*119 _0062_
*120 _0063_
*121 _0064_
*122 _0065_
*123 _0066_
*124 _0067_
*125 _0068_
*126 _0069_
*127 _0070_
*128 _0071_
*129 _0072_
*130 _0073_
*131 _0074_
*132 _0075_
*133 _0076_
*134 _0077_
*135 _0078_
*136 _0079_
*137 _0080_
*138 _0081_
*139 _0082_
*140 _0083_
*141 _0084_
*142 _0085_
*143 _0086_
*144 _0087_
*145 _0088_
*146 _0089_
*147 _0090_
*148 _0091_
*149 _0092_
*150 _0093_
*151 _0094_
*152 _0095_
*153 _0096_
*154 _0097_
*155 _0098_
*156 _0099_
*157 _0100_
*158 _0101_
*159 _0102_
*160 _0103_
*161 _0104_
*162 _0105_
*163 _0106_
*164 _0107_
*165 _0108_
*166 _0109_
*167 _0110_
*168 _0111_
*169 _0112_
*170 _0113_
*171 _0114_
*172 _0115_
*173 _0116_
*174 _0117_
*175 _0118_
*176 _0119_
*177 _0120_
*178 _0121_
*179 _0122_
*180 _0123_
*181 _0124_
*182 _0125_
*183 _0126_
*184 _0127_
*185 _0128_
*186 _0129_
*187 _0130_
*188 _0131_
*189 _0132_
*190 _0133_
*191 _0134_
*192 _0135_
*193 _0136_
*194 _0137_
*195 _0138_
*196 _0139_
*197 _0140_
*198 _0141_
*199 _0142_
*200 _0143_
*201 _0144_
*202 _0145_
*203 _0146_
*204 _0147_
*205 _0148_
*206 _0149_
*207 _0150_
*208 _0151_
*209 _0152_
*210 _0153_
*211 _0154_
*212 _0155_
*213 _0156_
*214 _0157_
*215 _0158_
*216 _0159_
*217 _0160_
*218 _0161_
*219 _0162_
*220 _0163_
*221 _0164_
*222 _0165_
*223 _0166_
*224 _0167_
*225 _0168_
*226 _0169_
*227 _0170_
*228 _0171_
*229 _0172_
*230 _0173_
*231 _0174_
*232 _0175_
*233 _0176_
*234 _0177_
*235 _0178_
*236 _0179_
*237 _0180_
*238 _0181_
*239 _0182_
*240 _0183_
*241 _0184_
*242 _0185_
*243 _0186_
*244 _0187_
*245 _0188_
*246 _0189_
*247 _0190_
*248 _0191_
*249 _0192_
*250 _0193_
*251 _0194_
*252 _0195_
*253 _0196_
*254 _0197_
*255 _0198_
*256 _0199_
*257 _0200_
*258 _0201_
*259 _0202_
*260 _0203_
*261 _0204_
*262 _0205_
*263 _0206_
*264 _0207_
*265 _0208_
*266 _0209_
*267 _0210_
*268 _0211_
*269 _0212_
*270 _0213_
*271 _0214_
*272 _0215_
*273 _0216_
*274 _0217_
*275 _0218_
*276 _0219_
*277 _0220_
*278 _0221_
*279 _0222_
*280 _0223_
*281 _0224_
*282 _0225_
*283 _0226_
*284 _0227_
*285 _0228_
*286 _0229_
*287 _0230_
*288 _0231_
*289 _0232_
*290 _0233_
*291 _0234_
*292 _0235_
*293 _0236_
*294 _0237_
*295 _0238_
*296 _0239_
*297 _0240_
*298 _0241_
*299 _0242_
*300 _0243_
*301 _0244_
*302 _0245_
*303 _0246_
*304 _0247_
*305 _0248_
*306 _0249_
*307 _0250_
*308 _0251_
*309 _0252_
*310 _0253_
*311 _0254_
*312 _0255_
*313 _0256_
*314 _0257_
*315 _0258_
*316 _0259_
*317 _0260_
*318 _0261_
*319 _0262_
*320 _0263_
*321 _0264_
*322 _0265_
*323 _0266_
*324 _0267_
*325 _0268_
*326 _0269_
*327 _0270_
*328 _0271_
*329 _0272_
*330 _0273_
*331 _0274_
*332 _0275_
*333 _0276_
*334 _0277_
*335 _0278_
*336 _0279_
*337 _0280_
*338 _0281_
*339 _0282_
*340 _0283_
*341 _0284_
*342 _0285_
*343 _0286_
*344 _0287_
*345 _0288_
*346 _0289_
*347 _0290_
*348 _0291_
*349 _0292_
*350 _0293_
*351 _0294_
*352 _0295_
*353 _0296_
*354 _0297_
*355 _0298_
*356 _0299_
*357 _0300_
*358 _0301_
*359 _0302_
*360 _0303_
*361 _0304_
*362 _0305_
*363 _0306_
*364 _0307_
*365 _0308_
*366 _0309_
*367 _0310_
*368 _0311_
*369 _0312_
*370 _0313_
*371 _0314_
*372 _0315_
*373 _0316_
*374 _0317_
*375 _0318_
*376 _0319_
*377 _0320_
*378 _0321_
*379 _0322_
*380 _0323_
*381 _0324_
*382 _0325_
*383 _0326_
*384 _0327_
*385 _0328_
*386 _0329_
*387 _0330_
*388 _0331_
*389 _0332_
*390 _0333_
*391 _0334_
*392 _0335_
*393 _0336_
*394 _0337_
*395 _0338_
*396 _0339_
*397 _0340_
*398 _0341_
*399 _0342_
*400 _0343_
*401 _0344_
*402 _0345_
*403 _0346_
*404 _0347_
*405 _0348_
*406 _0349_
*407 _0350_
*408 _0351_
*409 _0352_
*410 _0353_
*411 _0354_
*412 _0355_
*413 _0356_
*414 _0357_
*415 _0358_
*416 _0359_
*417 _0360_
*418 _0361_
*419 _0362_
*420 _0363_
*421 _0364_
*422 _0365_
*423 _0366_
*424 _0367_
*425 _0368_
*426 _0369_
*427 _0370_
*428 _0371_
*429 _0372_
*430 _0373_
*431 _0374_
*432 _0375_
*433 _0376_
*434 _0377_
*435 _0378_
*436 _0379_
*437 _0380_
*438 _0381_
*439 _0382_
*440 _0383_
*441 _0384_
*442 _0385_
*443 _0386_
*444 _0387_
*445 _0388_
*446 _0389_
*447 _0390_
*448 _0391_
*449 _0392_
*450 _0393_
*451 _0394_
*452 _0395_
*453 _0396_
*454 _0397_
*455 _0398_
*456 _0399_
*457 _0400_
*458 _0401_
*459 _0402_
*460 _0403_
*461 _0404_
*462 _0405_
*463 _0406_
*464 _0407_
*465 _0408_
*466 _0409_
*467 _0410_
*468 _0411_
*469 _0412_
*470 _0413_
*471 _0414_
*472 _0415_
*473 _0416_
*474 _0417_
*475 _0418_
*476 _0419_
*477 _0420_
*478 _0421_
*479 _0422_
*480 _0423_
*481 _0424_
*482 _0425_
*483 _0426_
*484 _0427_
*485 _0428_
*486 _0429_
*487 _0430_
*488 _0431_
*489 _0432_
*490 _0433_
*491 _0434_
*492 _0435_
*493 _0436_
*494 _0437_
*495 _0438_
*496 _0439_
*497 _0440_
*498 _0441_
*499 _0442_
*500 _0443_
*501 _0444_
*502 _0445_
*503 _0446_
*504 _0447_
*505 _0448_
*506 _0449_
*507 _0450_
*508 _0451_
*509 _0452_
*510 _0453_
*511 _0454_
*512 _0455_
*513 _0456_
*514 _0457_
*515 _0458_
*516 _0459_
*517 _0460_
*518 _0461_
*519 _0462_
*520 _0463_
*521 _0464_
*522 _0465_
*523 _0466_
*524 _0467_
*525 _0468_
*526 _0469_
*527 _0470_
*528 _0471_
*529 _0472_
*530 _0473_
*531 _0474_
*532 _0475_
*533 _0476_
*534 _0477_
*535 _0478_
*536 _0479_
*537 _0480_
*538 _0481_
*539 _0482_
*540 _0483_
*541 _0484_
*542 _0485_
*543 _0486_
*544 _0487_
*545 _0488_
*546 _0489_
*547 _0490_
*548 _0491_
*549 _0492_
*550 _0493_
*551 _0494_
*552 _0495_
*553 _0496_
*554 _0497_
*555 _0498_
*556 _0499_
*557 _0500_
*558 _0501_
*559 _0502_
*560 _0503_
*561 _0504_
*562 _0505_
*563 _0506_
*564 _0507_
*565 _0508_
*566 _0509_
*567 _0510_
*568 _0511_
*569 _0512_
*570 _0513_
*571 _0514_
*572 _0515_
*573 _0516_
*574 _0517_
*575 _0518_
*576 _0519_
*577 _0520_
*578 _0521_
*579 _0522_
*580 _0523_
*581 _0524_
*582 _0525_
*583 _0526_
*584 _0527_
*585 _0528_
*586 _0529_
*587 _0530_
*588 _0531_
*589 _0532_
*590 _0533_
*591 _0534_
*592 _0535_
*593 _0536_
*594 _0537_
*595 _0538_
*596 _0539_
*597 _0540_
*598 _0541_
*599 _0542_
*600 _0543_
*601 _0544_
*602 _0545_
*603 _0546_
*604 _0547_
*605 _0548_
*606 _0549_
*607 _0550_
*608 _0551_
*609 _0552_
*610 _0553_
*611 _0554_
*612 _0555_
*613 _0556_
*614 _0557_
*615 _0558_
*616 _0559_
*617 _0560_
*618 _0561_
*619 _0562_
*620 _0563_
*621 _0564_
*622 _0565_
*623 _0566_
*624 _0567_
*625 _0568_
*626 _0569_
*627 _0570_
*628 _0571_
*629 _0572_
*630 _0573_
*631 _0574_
*632 _0575_
*633 _0576_
*634 _0577_
*635 _0578_
*636 _0579_
*637 _0580_
*638 _0581_
*639 _0582_
*640 _0583_
*641 _0584_
*642 _0585_
*643 _0586_
*644 _0587_
*645 _0588_
*646 _0589_
*647 _0590_
*648 _0591_
*649 _0592_
*650 _0593_
*651 _0594_
*652 _0595_
*653 _0596_
*654 _0597_
*655 _0598_
*656 _0599_
*657 _0600_
*658 _0601_
*659 _0602_
*660 _0603_
*661 _0604_
*662 _0605_
*663 _0606_
*664 _0607_
*665 _0608_
*666 _0609_
*667 _0610_
*668 _0611_
*669 _0612_
*670 _0613_
*671 _0614_
*672 _0615_
*673 _0616_
*674 _0617_
*675 _0618_
*676 _0619_
*677 _0620_
*678 _0621_
*679 _0622_
*680 _0623_
*681 _0624_
*682 _0625_
*683 _0626_
*684 _0627_
*685 _0628_
*686 _0629_
*687 _0630_
*688 _0631_
*689 _0632_
*690 _0633_
*691 _0634_
*692 _0635_
*693 _0636_
*694 _0637_
*695 _0638_
*696 _0639_
*697 _0640_
*698 _0641_
*699 _0642_
*700 _0643_
*701 _0644_
*702 _0645_
*703 _0646_
*704 _0647_
*705 _0648_
*706 _0649_
*707 _0650_
*708 _0651_
*709 _0652_
*710 _0653_
*711 _0654_
*712 _0655_
*713 _0656_
*714 _0657_
*715 _0658_
*716 _0659_
*717 _0660_
*718 _0661_
*719 _0662_
*720 _0663_
*721 _0664_
*722 _0665_
*723 _0666_
*724 _0667_
*725 _0668_
*726 _0669_
*727 _0670_
*728 _0671_
*729 _0672_
*730 _0673_
*731 _0674_
*732 _0675_
*733 _0676_
*734 _0677_
*735 _0678_
*736 _0679_
*737 _0680_
*738 _0681_
*739 _0682_
*740 _0683_
*741 _0684_
*742 _0685_
*743 _0686_
*744 _0687_
*745 _0688_
*746 _0689_
*747 _0690_
*748 _0691_
*749 _0692_
*750 _0693_
*751 _0694_
*752 _0695_
*753 _0696_
*754 _0697_
*755 _0698_
*756 _0699_
*757 _0700_
*758 _0701_
*759 _0702_
*760 _0703_
*761 _0704_
*762 _0705_
*763 _0706_
*764 _0707_
*765 _0708_
*766 _0709_
*767 _0710_
*768 _0711_
*769 _0712_
*770 _0713_
*771 _0714_
*772 _0715_
*773 _0716_
*774 _0717_
*775 _0718_
*776 _0719_
*777 _0720_
*778 _0721_
*779 _0722_
*780 _0723_
*781 _0724_
*782 _0725_
*783 _0726_
*784 _0727_
*785 _0728_
*786 _0729_
*787 _0730_
*788 _0731_
*789 _0732_
*790 _0733_
*791 _0734_
*792 _0735_
*793 _0736_
*794 _0737_
*795 _0738_
*796 _0739_
*797 _0740_
*798 _0741_
*799 _0742_
*800 _0743_
*801 _0744_
*802 _0745_
*803 _0746_
*804 _0747_
*805 _0748_
*806 _0749_
*807 _0750_
*808 _0751_
*809 _0752_
*810 _0753_
*811 _0754_
*812 _0755_
*813 _0756_
*814 _0757_
*815 _0758_
*816 _0759_
*817 _0760_
*818 _0761_
*819 _0762_
*820 _0763_
*821 _0764_
*822 _0765_
*823 _0766_
*824 _0767_
*825 _0768_
*826 _0769_
*827 _0770_
*828 _0771_
*829 _0772_
*830 _0773_
*831 _0774_
*832 _0775_
*833 _0776_
*834 _0777_
*835 _0778_
*836 _0779_
*837 _0780_
*838 _0781_
*839 _0782_
*840 _0783_
*841 _0784_
*842 _0785_
*843 _0786_
*844 _0787_
*845 _0788_
*846 _0789_
*847 _0790_
*848 _0791_
*849 _0792_
*850 _0793_
*851 _0794_
*852 _0795_
*853 _0796_
*854 _0797_
*855 _0798_
*856 _0799_
*857 _0800_
*858 _0801_
*859 _0802_
*860 _0803_
*861 _0804_
*862 _0805_
*863 _0806_
*864 _0807_
*865 _0808_
*866 _0809_
*867 _0810_
*868 _0811_
*869 clknet_0_wb_clk_i
*870 clknet_4_0_0_wb_clk_i
*871 clknet_4_10_0_wb_clk_i
*872 clknet_4_11_0_wb_clk_i
*873 clknet_4_12_0_wb_clk_i
*874 clknet_4_13_0_wb_clk_i
*875 clknet_4_14_0_wb_clk_i
*876 clknet_4_15_0_wb_clk_i
*877 clknet_4_1_0_wb_clk_i
*878 clknet_4_2_0_wb_clk_i
*879 clknet_4_3_0_wb_clk_i
*880 clknet_4_4_0_wb_clk_i
*881 clknet_4_5_0_wb_clk_i
*882 clknet_4_6_0_wb_clk_i
*883 clknet_4_7_0_wb_clk_i
*884 clknet_4_8_0_wb_clk_i
*885 clknet_4_9_0_wb_clk_i
*886 net1
*887 net10
*888 net11
*889 net12
*890 net13
*891 net14
*892 net15
*893 net16
*894 net17
*895 net18
*896 net19
*897 net2
*898 net20
*899 net21
*900 net22
*901 net23
*902 net24
*903 net25
*904 net26
*905 net27
*906 net28
*907 net29
*908 net3
*909 net30
*910 net31
*911 net32
*912 net33
*913 net34
*914 net35
*915 net36
*916 net37
*917 net38
*918 net39
*919 net4
*920 net40
*921 net41
*922 net42
*923 net43
*924 net44
*925 net45
*926 net46
*927 net47
*928 net48
*929 net49
*930 net5
*931 net50
*932 net51
*933 net52
*934 net53
*935 net54
*936 net55
*937 net56
*938 net57
*939 net58
*940 net59
*941 net6
*942 net60
*943 net61
*944 net7
*945 net8
*946 net9
*947 proj1\.controller\.state\[0\]
*948 proj1\.controller\.state\[1\]
*949 proj1\.controller\.state\[2\]
*950 proj1\.controller\.state\[3\]
*951 proj1\.datapath\.busy
*952 proj1\.datapath\.current_bit\[0\]
*953 proj1\.datapath\.current_bit\[1\]
*954 proj1\.datapath\.current_bit\[2\]
*955 proj1\.datapath\.current_bit\[3\]
*956 proj1\.datapath\.current_bit\[4\]
*957 proj1\.datapath\.even_parity
*958 proj1\.datapath\.odd_parity
*959 proj1\.datapath\.one_count\[0\]
*960 proj1\.datapath\.parity\[0\]
*961 proj1\.datapath\.parity\[1\]
*962 proj1\.datapath\.shift_reg\[0\]
*963 proj1\.datapath\.shift_reg\[1\]
*964 proj1\.datapath\.shift_reg\[2\]
*965 proj1\.datapath\.shift_reg\[3\]
*966 proj1\.datapath\.shift_reg\[4\]
*967 proj1\.datapath\.shift_reg\[5\]
*968 proj1\.datapath\.shift_reg\[6\]
*969 proj1\.datapath\.shift_reg\[7\]
*970 the_mips\.alusrca
*971 the_mips\.alusrcb\[0\]
*972 the_mips\.alusrcb\[1\]
*973 the_mips\.cont\.ac\.aluop\[0\]
*974 the_mips\.cont\.ac\.aluop\[1\]
*975 the_mips\.cont\.ac\.funct\[0\]
*976 the_mips\.cont\.ac\.funct\[1\]
*977 the_mips\.cont\.ac\.funct\[2\]
*978 the_mips\.cont\.ac\.funct\[3\]
*979 the_mips\.cont\.ac\.funct\[4\]
*980 the_mips\.cont\.ac\.funct\[5\]
*981 the_mips\.cont\.iord
*982 the_mips\.cont\.memtoreg
*983 the_mips\.cont\.op\[0\]
*984 the_mips\.cont\.op\[1\]
*985 the_mips\.cont\.op\[2\]
*986 the_mips\.cont\.op\[3\]
*987 the_mips\.cont\.op\[4\]
*988 the_mips\.cont\.op\[5\]
*989 the_mips\.cont\.outputlog\.pcsrc\[1\]
*990 the_mips\.cont\.outputlog\.pcwrite
*991 the_mips\.cont\.outputlog\.regdst
*992 the_mips\.cont\.outputlog\.regwrite
*993 the_mips\.cont\.outputlog\.state\[0\]
*994 the_mips\.cont\.outputlog\.state\[1\]
*995 the_mips\.cont\.outputlog\.state\[2\]
*996 the_mips\.cont\.outputlog\.state\[3\]
*997 the_mips\.dp\.a\[0\]
*998 the_mips\.dp\.a\[1\]
*999 the_mips\.dp\.a\[2\]
*1000 the_mips\.dp\.a\[3\]
*1001 the_mips\.dp\.a\[4\]
*1002 the_mips\.dp\.a\[5\]
*1003 the_mips\.dp\.a\[6\]
*1004 the_mips\.dp\.a\[7\]
*1005 the_mips\.dp\.adrmux\.d0\[0\]
*1006 the_mips\.dp\.adrmux\.d0\[1\]
*1007 the_mips\.dp\.adrmux\.d0\[2\]
*1008 the_mips\.dp\.adrmux\.d0\[3\]
*1009 the_mips\.dp\.adrmux\.d0\[4\]
*1010 the_mips\.dp\.adrmux\.d0\[5\]
*1011 the_mips\.dp\.adrmux\.d0\[6\]
*1012 the_mips\.dp\.adrmux\.d0\[7\]
*1013 the_mips\.dp\.adrmux\.d1\[0\]
*1014 the_mips\.dp\.adrmux\.d1\[1\]
*1015 the_mips\.dp\.adrmux\.d1\[2\]
*1016 the_mips\.dp\.adrmux\.d1\[3\]
*1017 the_mips\.dp\.adrmux\.d1\[4\]
*1018 the_mips\.dp\.adrmux\.d1\[5\]
*1019 the_mips\.dp\.adrmux\.d1\[6\]
*1020 the_mips\.dp\.adrmux\.d1\[7\]
*1021 the_mips\.dp\.alunit\.result\[0\]
*1022 the_mips\.dp\.alunit\.result\[1\]
*1023 the_mips\.dp\.alunit\.result\[2\]
*1024 the_mips\.dp\.alunit\.result\[3\]
*1025 the_mips\.dp\.alunit\.result\[4\]
*1026 the_mips\.dp\.alunit\.result\[5\]
*1027 the_mips\.dp\.alunit\.result\[6\]
*1028 the_mips\.dp\.alunit\.result\[7\]
*1029 the_mips\.dp\.data\[0\]
*1030 the_mips\.dp\.data\[1\]
*1031 the_mips\.dp\.data\[2\]
*1032 the_mips\.dp\.data\[3\]
*1033 the_mips\.dp\.data\[4\]
*1034 the_mips\.dp\.data\[5\]
*1035 the_mips\.dp\.data\[6\]
*1036 the_mips\.dp\.data\[7\]
*1037 the_mips\.dp\.instr\[11\]
*1038 the_mips\.dp\.instr\[12\]
*1039 the_mips\.dp\.instr\[13\]
*1040 the_mips\.dp\.instr\[16\]
*1041 the_mips\.dp\.instr\[17\]
*1042 the_mips\.dp\.instr\[18\]
*1043 the_mips\.dp\.instr\[21\]
*1044 the_mips\.dp\.instr\[22\]
*1045 the_mips\.dp\.instr\[23\]
*1046 the_mips\.dp\.instr\[6\]
*1047 the_mips\.dp\.instr\[7\]
*1048 the_mips\.dp\.ir0\.en
*1049 the_mips\.dp\.ir1\.en
*1050 the_mips\.dp\.ir2\.en
*1051 the_mips\.dp\.ir3\.en
*1052 the_mips\.dp\.rf\.RAM\[0\]\[0\]
*1053 the_mips\.dp\.rf\.RAM\[0\]\[1\]
*1054 the_mips\.dp\.rf\.RAM\[0\]\[2\]
*1055 the_mips\.dp\.rf\.RAM\[0\]\[3\]
*1056 the_mips\.dp\.rf\.RAM\[0\]\[4\]
*1057 the_mips\.dp\.rf\.RAM\[0\]\[5\]
*1058 the_mips\.dp\.rf\.RAM\[0\]\[6\]
*1059 the_mips\.dp\.rf\.RAM\[0\]\[7\]
*1060 the_mips\.dp\.rf\.RAM\[1\]\[0\]
*1061 the_mips\.dp\.rf\.RAM\[1\]\[1\]
*1062 the_mips\.dp\.rf\.RAM\[1\]\[2\]
*1063 the_mips\.dp\.rf\.RAM\[1\]\[3\]
*1064 the_mips\.dp\.rf\.RAM\[1\]\[4\]
*1065 the_mips\.dp\.rf\.RAM\[1\]\[5\]
*1066 the_mips\.dp\.rf\.RAM\[1\]\[6\]
*1067 the_mips\.dp\.rf\.RAM\[1\]\[7\]
*1068 the_mips\.dp\.rf\.RAM\[2\]\[0\]
*1069 the_mips\.dp\.rf\.RAM\[2\]\[1\]
*1070 the_mips\.dp\.rf\.RAM\[2\]\[2\]
*1071 the_mips\.dp\.rf\.RAM\[2\]\[3\]
*1072 the_mips\.dp\.rf\.RAM\[2\]\[4\]
*1073 the_mips\.dp\.rf\.RAM\[2\]\[5\]
*1074 the_mips\.dp\.rf\.RAM\[2\]\[6\]
*1075 the_mips\.dp\.rf\.RAM\[2\]\[7\]
*1076 the_mips\.dp\.rf\.RAM\[3\]\[0\]
*1077 the_mips\.dp\.rf\.RAM\[3\]\[1\]
*1078 the_mips\.dp\.rf\.RAM\[3\]\[2\]
*1079 the_mips\.dp\.rf\.RAM\[3\]\[3\]
*1080 the_mips\.dp\.rf\.RAM\[3\]\[4\]
*1081 the_mips\.dp\.rf\.RAM\[3\]\[5\]
*1082 the_mips\.dp\.rf\.RAM\[3\]\[6\]
*1083 the_mips\.dp\.rf\.RAM\[3\]\[7\]
*1084 the_mips\.dp\.rf\.RAM\[4\]\[0\]
*1085 the_mips\.dp\.rf\.RAM\[4\]\[1\]
*1086 the_mips\.dp\.rf\.RAM\[4\]\[2\]
*1087 the_mips\.dp\.rf\.RAM\[4\]\[3\]
*1088 the_mips\.dp\.rf\.RAM\[4\]\[4\]
*1089 the_mips\.dp\.rf\.RAM\[4\]\[5\]
*1090 the_mips\.dp\.rf\.RAM\[4\]\[6\]
*1091 the_mips\.dp\.rf\.RAM\[4\]\[7\]
*1092 the_mips\.dp\.rf\.RAM\[5\]\[0\]
*1093 the_mips\.dp\.rf\.RAM\[5\]\[1\]
*1094 the_mips\.dp\.rf\.RAM\[5\]\[2\]
*1095 the_mips\.dp\.rf\.RAM\[5\]\[3\]
*1096 the_mips\.dp\.rf\.RAM\[5\]\[4\]
*1097 the_mips\.dp\.rf\.RAM\[5\]\[5\]
*1098 the_mips\.dp\.rf\.RAM\[5\]\[6\]
*1099 the_mips\.dp\.rf\.RAM\[5\]\[7\]
*1100 the_mips\.dp\.rf\.RAM\[6\]\[0\]
*1101 the_mips\.dp\.rf\.RAM\[6\]\[1\]
*1102 the_mips\.dp\.rf\.RAM\[6\]\[2\]
*1103 the_mips\.dp\.rf\.RAM\[6\]\[3\]
*1104 the_mips\.dp\.rf\.RAM\[6\]\[4\]
*1105 the_mips\.dp\.rf\.RAM\[6\]\[5\]
*1106 the_mips\.dp\.rf\.RAM\[6\]\[6\]
*1107 the_mips\.dp\.rf\.RAM\[6\]\[7\]
*1108 the_mips\.dp\.rf\.RAM\[7\]\[0\]
*1109 the_mips\.dp\.rf\.RAM\[7\]\[1\]
*1110 the_mips\.dp\.rf\.RAM\[7\]\[2\]
*1111 the_mips\.dp\.rf\.RAM\[7\]\[3\]
*1112 the_mips\.dp\.rf\.RAM\[7\]\[4\]
*1113 the_mips\.dp\.rf\.RAM\[7\]\[5\]
*1114 the_mips\.dp\.rf\.RAM\[7\]\[6\]
*1115 the_mips\.dp\.rf\.RAM\[7\]\[7\]
*1116 the_mips\.dp\.src2mux\.d0\[0\]
*1117 the_mips\.dp\.src2mux\.d0\[1\]
*1118 the_mips\.dp\.src2mux\.d0\[2\]
*1119 the_mips\.dp\.src2mux\.d0\[3\]
*1120 the_mips\.dp\.src2mux\.d0\[4\]
*1121 the_mips\.dp\.src2mux\.d0\[5\]
*1122 the_mips\.dp\.src2mux\.d0\[6\]
*1123 the_mips\.dp\.src2mux\.d0\[7\]
*1124 ANTENNA_1
*1125 ANTENNA_2
*1126 ANTENNA_3
*1127 ANTENNA_4
*1128 ANTENNA_5
*1129 ANTENNA_6
*1130 ANTENNA__0814__I
*1131 ANTENNA__0815__I
*1132 ANTENNA__0816__A1
*1133 ANTENNA__0817__A1
*1134 ANTENNA__0817__A2
*1135 ANTENNA__0819__I
*1136 ANTENNA__0822__A3
*1137 ANTENNA__0823__A1
*1138 ANTENNA__0823__A2
*1139 ANTENNA__0826__I
*1140 ANTENNA__0827__I
*1141 ANTENNA__0829__I
*1142 ANTENNA__0831__I
*1143 ANTENNA__0837__A1
*1144 ANTENNA__0838__A1
*1145 ANTENNA__0841__I
*1146 ANTENNA__0842__B
*1147 ANTENNA__0846__A1
*1148 ANTENNA__0846__A2
*1149 ANTENNA__0849__I
*1150 ANTENNA__0855__I0
*1151 ANTENNA__0858__A1
*1152 ANTENNA__0861__A1
*1153 ANTENNA__0862__A1
*1154 ANTENNA__0862__A2
*1155 ANTENNA__0864__I0
*1156 ANTENNA__0865__I
*1157 ANTENNA__0866__A1
*1158 ANTENNA__0867__A2
*1159 ANTENNA__0868__A2
*1160 ANTENNA__0870__A1
*1161 ANTENNA__0872__I0
*1162 ANTENNA__0875__A2
*1163 ANTENNA__0881__S
*1164 ANTENNA__0883__I0
*1165 ANTENNA__0890__A1
*1166 ANTENNA__0891__I0
*1167 ANTENNA__0892__A2
*1168 ANTENNA__0894__A1
*1169 ANTENNA__0897__I0
*1170 ANTENNA__0898__I0
*1171 ANTENNA__0899__A1
*1172 ANTENNA__0911__A1
*1173 ANTENNA__0912__A1
*1174 ANTENNA__0917__A1
*1175 ANTENNA__0917__B2
*1176 ANTENNA__0929__A3
*1177 ANTENNA__0929__B2
*1178 ANTENNA__0930__A1
*1179 ANTENNA__0931__I
*1180 ANTENNA__0933__A1
*1181 ANTENNA__0934__B
*1182 ANTENNA__0938__A1
*1183 ANTENNA__0939__I
*1184 ANTENNA__0942__A1
*1185 ANTENNA__0943__A1
*1186 ANTENNA__0943__B2
*1187 ANTENNA__0945__A1
*1188 ANTENNA__0947__I
*1189 ANTENNA__0950__A1
*1190 ANTENNA__0955__A1
*1191 ANTENNA__0962__A1
*1192 ANTENNA__0964__S
*1193 ANTENNA__0966__A2
*1194 ANTENNA__0970__A1
*1195 ANTENNA__0970__A3
*1196 ANTENNA__0973__I
*1197 ANTENNA__0974__A1
*1198 ANTENNA__0976__B
*1199 ANTENNA__0983__I
*1200 ANTENNA__0989__A3
*1201 ANTENNA__0992__A1
*1202 ANTENNA__1000__A1
*1203 ANTENNA__1011__I
*1204 ANTENNA__1012__I
*1205 ANTENNA__1016__A1
*1206 ANTENNA__1021__A1
*1207 ANTENNA__1021__A2
*1208 ANTENNA__1032__A1
*1209 ANTENNA__1040__A1
*1210 ANTENNA__1042__A1
*1211 ANTENNA__1042__A2
*1212 ANTENNA__1042__A3
*1213 ANTENNA__1043__A1
*1214 ANTENNA__1043__A2
*1215 ANTENNA__1044__I
*1216 ANTENNA__1045__A2
*1217 ANTENNA__1046__I
*1218 ANTENNA__1047__A2
*1219 ANTENNA__1048__I
*1220 ANTENNA__1049__A2
*1221 ANTENNA__1050__I
*1222 ANTENNA__1051__A2
*1223 ANTENNA__1052__I
*1224 ANTENNA__1053__I
*1225 ANTENNA__1054__A1
*1226 ANTENNA__1054__A2
*1227 ANTENNA__1056__A1
*1228 ANTENNA__1056__A2
*1229 ANTENNA__1058__A1
*1230 ANTENNA__1058__A2
*1231 ANTENNA__1059__I
*1232 ANTENNA__1060__A1
*1233 ANTENNA__1060__A2
*1234 ANTENNA__1061__I
*1235 ANTENNA__1063__I
*1236 ANTENNA__1065__I
*1237 ANTENNA__1066__A2
*1238 ANTENNA__1068__I
*1239 ANTENNA__1069__A1
*1240 ANTENNA__1072__A1
*1241 ANTENNA__1075__A1
*1242 ANTENNA__1078__A1
*1243 ANTENNA__1081__I
*1244 ANTENNA__1083__I
*1245 ANTENNA__1084__A1
*1246 ANTENNA__1085__A1
*1247 ANTENNA__1087__A1
*1248 ANTENNA__1088__A1
*1249 ANTENNA__1090__A1
*1250 ANTENNA__1091__A1
*1251 ANTENNA__1093__A1
*1252 ANTENNA__1094__A1
*1253 ANTENNA__1095__I
*1254 ANTENNA__1097__I
*1255 ANTENNA__1098__A1
*1256 ANTENNA__1100__A1
*1257 ANTENNA__1101__A1
*1258 ANTENNA__1102__I0
*1259 ANTENNA__1102__I1
*1260 ANTENNA__1104__A1
*1261 ANTENNA__1106__A1
*1262 ANTENNA__1108__I
*1263 ANTENNA__1109__A1
*1264 ANTENNA__1111__I1
*1265 ANTENNA__1111__S
*1266 ANTENNA__1113__I1
*1267 ANTENNA__1113__S
*1268 ANTENNA__1115__I1
*1269 ANTENNA__1115__S
*1270 ANTENNA__1117__I1
*1271 ANTENNA__1117__S
*1272 ANTENNA__1119__I1
*1273 ANTENNA__1119__S
*1274 ANTENNA__1122__I
*1275 ANTENNA__1123__A1
*1276 ANTENNA__1127__I
*1277 ANTENNA__1128__I1
*1278 ANTENNA__1132__I1
*1279 ANTENNA__1135__I
*1280 ANTENNA__1136__A1
*1281 ANTENNA__1140__I1
*1282 ANTENNA__1144__I1
*1283 ANTENNA__1148__A2
*1284 ANTENNA__1148__A3
*1285 ANTENNA__1148__A4
*1286 ANTENNA__1151__A2
*1287 ANTENNA__1160__A1
*1288 ANTENNA__1164__A2
*1289 ANTENNA__1169__A1
*1290 ANTENNA__1174__A1
*1291 ANTENNA__1174__B
*1292 ANTENNA__1178__A1
*1293 ANTENNA__1179__A1
*1294 ANTENNA__1181__A1
*1295 ANTENNA__1184__A1
*1296 ANTENNA__1187__A1
*1297 ANTENNA__1188__A1
*1298 ANTENNA__1190__A1
*1299 ANTENNA__1191__A1
*1300 ANTENNA__1193__A1
*1301 ANTENNA__1194__A1
*1302 ANTENNA__1197__A1
*1303 ANTENNA__1200__A1
*1304 ANTENNA__1200__A3
*1305 ANTENNA__1207__S
*1306 ANTENNA__1209__S
*1307 ANTENNA__1211__I
*1308 ANTENNA__1212__A2
*1309 ANTENNA__1213__A2
*1310 ANTENNA__1217__I
*1311 ANTENNA__1218__I1
*1312 ANTENNA__1224__I1
*1313 ANTENNA__1229__I1
*1314 ANTENNA__1234__I1
*1315 ANTENNA__1237__A2
*1316 ANTENNA__1238__A2
*1317 ANTENNA__1240__I
*1318 ANTENNA__1241__I1
*1319 ANTENNA__1243__A2
*1320 ANTENNA__1244__A2
*1321 ANTENNA__1245__I
*1322 ANTENNA__1246__I1
*1323 ANTENNA__1249__A2
*1324 ANTENNA__1250__I
*1325 ANTENNA__1251__I1
*1326 ANTENNA__1254__A2
*1327 ANTENNA__1256__I1
*1328 ANTENNA__1272__I0
*1329 ANTENNA__1275__I0
*1330 ANTENNA__1278__I0
*1331 ANTENNA__1281__I0
*1332 ANTENNA__1285__I0
*1333 ANTENNA__1287__I
*1334 ANTENNA__1288__I0
*1335 ANTENNA__1290__I
*1336 ANTENNA__1291__I0
*1337 ANTENNA__1294__I0
*1338 ANTENNA__1302__I1
*1339 ANTENNA__1302__S
*1340 ANTENNA__1304__I1
*1341 ANTENNA__1304__S
*1342 ANTENNA__1306__I1
*1343 ANTENNA__1306__S
*1344 ANTENNA__1308__I1
*1345 ANTENNA__1308__S
*1346 ANTENNA__1311__I1
*1347 ANTENNA__1311__S
*1348 ANTENNA__1313__I1
*1349 ANTENNA__1313__S
*1350 ANTENNA__1315__I1
*1351 ANTENNA__1315__S
*1352 ANTENNA__1317__I1
*1353 ANTENNA__1317__S
*1354 ANTENNA__1322__I
*1355 ANTENNA__1326__A1
*1356 ANTENNA__1327__I
*1357 ANTENNA__1328__S1
*1358 ANTENNA__1330__A2
*1359 ANTENNA__1331__I
*1360 ANTENNA__1334__S1
*1361 ANTENNA__1336__A2
*1362 ANTENNA__1339__S1
*1363 ANTENNA__1341__A2
*1364 ANTENNA__1346__S1
*1365 ANTENNA__1348__A2
*1366 ANTENNA__1354__I
*1367 ANTENNA__1355__S1
*1368 ANTENNA__1357__A2
*1369 ANTENNA__1360__S1
*1370 ANTENNA__1362__A2
*1371 ANTENNA__1365__S1
*1372 ANTENNA__1367__A2
*1373 ANTENNA__1372__A2
*1374 ANTENNA__1375__I1
*1375 ANTENNA__1377__I1
*1376 ANTENNA__1379__I1
*1377 ANTENNA__1381__I1
*1378 ANTENNA__1384__I1
*1379 ANTENNA__1384__S
*1380 ANTENNA__1386__I1
*1381 ANTENNA__1386__S
*1382 ANTENNA__1388__I1
*1383 ANTENNA__1388__S
*1384 ANTENNA__1390__I1
*1385 ANTENNA__1390__S
*1386 ANTENNA__1397__A1
*1387 ANTENNA__1407__I
*1388 ANTENNA__1411__A1
*1389 ANTENNA__1412__I
*1390 ANTENNA__1413__S1
*1391 ANTENNA__1414__A2
*1392 ANTENNA__1416__I
*1393 ANTENNA__1419__S1
*1394 ANTENNA__1420__A2
*1395 ANTENNA__1424__S1
*1396 ANTENNA__1425__A2
*1397 ANTENNA__1431__S1
*1398 ANTENNA__1432__A2
*1399 ANTENNA__1440__S1
*1400 ANTENNA__1445__S1
*1401 ANTENNA__1446__A2
*1402 ANTENNA__1450__S1
*1403 ANTENNA__1458__A1
*1404 ANTENNA__1492__B2
*1405 ANTENNA__1498__B2
*1406 ANTENNA__1513__A1
*1407 ANTENNA__1517__A1
*1408 ANTENNA__1519__A1
*1409 ANTENNA__1523__A1
*1410 ANTENNA__1528__A1
*1411 ANTENNA__1532__A1
*1412 ANTENNA__1536__A1
*1413 ANTENNA__1540__A1
*1414 ANTENNA__1546__I0
*1415 ANTENNA__1546__S
*1416 ANTENNA__1548__I0
*1417 ANTENNA__1548__S
*1418 ANTENNA__1550__I0
*1419 ANTENNA__1550__S
*1420 ANTENNA__1552__I0
*1421 ANTENNA__1552__S
*1422 ANTENNA__1555__I0
*1423 ANTENNA__1555__S
*1424 ANTENNA__1557__I0
*1425 ANTENNA__1557__S
*1426 ANTENNA__1559__I0
*1427 ANTENNA__1559__S
*1428 ANTENNA__1561__I0
*1429 ANTENNA__1561__S
*1430 ANTENNA__1565__A2
*1431 ANTENNA__1569__A1
*1432 ANTENNA__1574__I
*1433 ANTENNA__1575__I1
*1434 ANTENNA__1577__I1
*1435 ANTENNA__1579__I1
*1436 ANTENNA__1581__I1
*1437 ANTENNA__1583__I
*1438 ANTENNA__1584__I1
*1439 ANTENNA__1586__I1
*1440 ANTENNA__1588__I1
*1441 ANTENNA__1590__I1
*1442 ANTENNA__1592__A1
*1443 ANTENNA__1594__I
*1444 ANTENNA__1595__I0
*1445 ANTENNA__1597__I0
*1446 ANTENNA__1599__I0
*1447 ANTENNA__1601__I0
*1448 ANTENNA__1603__I
*1449 ANTENNA__1604__I0
*1450 ANTENNA__1606__I0
*1451 ANTENNA__1608__I0
*1452 ANTENNA__1610__I0
*1453 ANTENNA__1617__I0
*1454 ANTENNA__1617__S
*1455 ANTENNA__1619__I0
*1456 ANTENNA__1619__S
*1457 ANTENNA__1621__I0
*1458 ANTENNA__1621__S
*1459 ANTENNA__1623__I0
*1460 ANTENNA__1623__S
*1461 ANTENNA__1626__I0
*1462 ANTENNA__1626__S
*1463 ANTENNA__1628__I0
*1464 ANTENNA__1628__S
*1465 ANTENNA__1630__I0
*1466 ANTENNA__1630__S
*1467 ANTENNA__1632__I0
*1468 ANTENNA__1632__S
*1469 ANTENNA__1635__I1
*1470 ANTENNA__1638__A1
*1471 ANTENNA__1640__I0
*1472 ANTENNA__1640__I1
*1473 ANTENNA__1642__I1
*1474 ANTENNA__1644__I1
*1475 ANTENNA__1646__A1
*1476 ANTENNA__1648__CLK
*1477 ANTENNA__1649__CLK
*1478 ANTENNA__1650__CLK
*1479 ANTENNA__1651__CLK
*1480 ANTENNA__1652__CLK
*1481 ANTENNA__1653__CLK
*1482 ANTENNA__1654__CLK
*1483 ANTENNA__1655__CLK
*1484 ANTENNA__1656__CLK
*1485 ANTENNA__1657__CLK
*1486 ANTENNA__1658__CLK
*1487 ANTENNA__1659__CLK
*1488 ANTENNA__1660__CLK
*1489 ANTENNA__1661__CLK
*1490 ANTENNA__1662__CLK
*1491 ANTENNA__1663__CLK
*1492 ANTENNA__1664__CLK
*1493 ANTENNA__1665__CLK
*1494 ANTENNA__1666__CLK
*1495 ANTENNA__1667__CLK
*1496 ANTENNA__1668__CLK
*1497 ANTENNA__1669__CLK
*1498 ANTENNA__1670__CLK
*1499 ANTENNA__1671__CLK
*1500 ANTENNA__1672__CLK
*1501 ANTENNA__1673__CLK
*1502 ANTENNA__1674__CLK
*1503 ANTENNA__1675__CLK
*1504 ANTENNA__1676__CLK
*1505 ANTENNA__1677__CLK
*1506 ANTENNA__1678__CLK
*1507 ANTENNA__1679__CLK
*1508 ANTENNA__1680__CLK
*1509 ANTENNA__1681__CLK
*1510 ANTENNA__1682__CLK
*1511 ANTENNA__1683__CLK
*1512 ANTENNA__1684__CLK
*1513 ANTENNA__1685__CLK
*1514 ANTENNA__1686__CLK
*1515 ANTENNA__1687__CLK
*1516 ANTENNA__1688__CLK
*1517 ANTENNA__1689__CLK
*1518 ANTENNA__1690__CLK
*1519 ANTENNA__1691__CLK
*1520 ANTENNA__1692__CLK
*1521 ANTENNA__1693__CLK
*1522 ANTENNA__1694__CLK
*1523 ANTENNA__1695__CLK
*1524 ANTENNA__1696__CLK
*1525 ANTENNA__1697__CLK
*1526 ANTENNA__1698__CLK
*1527 ANTENNA__1699__CLK
*1528 ANTENNA__1700__CLK
*1529 ANTENNA__1701__CLK
*1530 ANTENNA__1702__CLK
*1531 ANTENNA__1703__CLK
*1532 ANTENNA__1704__CLK
*1533 ANTENNA__1705__CLK
*1534 ANTENNA__1706__CLK
*1535 ANTENNA__1707__CLK
*1536 ANTENNA__1708__CLK
*1537 ANTENNA__1709__CLK
*1538 ANTENNA__1710__CLK
*1539 ANTENNA__1711__CLK
*1540 ANTENNA__1712__CLK
*1541 ANTENNA__1713__CLK
*1542 ANTENNA__1714__CLK
*1543 ANTENNA__1715__CLK
*1544 ANTENNA__1716__CLK
*1545 ANTENNA__1717__CLK
*1546 ANTENNA__1718__CLK
*1547 ANTENNA__1719__CLK
*1548 ANTENNA__1720__CLK
*1549 ANTENNA__1721__CLK
*1550 ANTENNA__1722__CLK
*1551 ANTENNA__1723__CLK
*1552 ANTENNA__1724__CLK
*1553 ANTENNA__1725__CLK
*1554 ANTENNA__1726__CLK
*1555 ANTENNA__1727__CLK
*1556 ANTENNA__1728__CLK
*1557 ANTENNA__1729__CLK
*1558 ANTENNA__1730__CLK
*1559 ANTENNA__1731__CLK
*1560 ANTENNA__1732__CLK
*1561 ANTENNA__1733__CLK
*1562 ANTENNA__1734__CLK
*1563 ANTENNA__1734__D
*1564 ANTENNA__1735__CLK
*1565 ANTENNA__1736__CLK
*1566 ANTENNA__1737__CLK
*1567 ANTENNA__1738__CLK
*1568 ANTENNA__1739__CLK
*1569 ANTENNA__1740__CLK
*1570 ANTENNA__1741__CLK
*1571 ANTENNA__1742__CLK
*1572 ANTENNA__1743__CLK
*1573 ANTENNA__1744__CLK
*1574 ANTENNA__1745__CLK
*1575 ANTENNA__1746__CLK
*1576 ANTENNA__1747__CLK
*1577 ANTENNA__1748__CLK
*1578 ANTENNA__1749__CLK
*1579 ANTENNA__1750__CLK
*1580 ANTENNA__1751__CLK
*1581 ANTENNA__1753__CLK
*1582 ANTENNA__1754__CLK
*1583 ANTENNA__1756__CLK
*1584 ANTENNA__1757__CLK
*1585 ANTENNA__1758__CLK
*1586 ANTENNA__1759__CLK
*1587 ANTENNA__1760__CLK
*1588 ANTENNA__1761__CLK
*1589 ANTENNA__1762__CLK
*1590 ANTENNA__1763__CLK
*1591 ANTENNA__1764__CLK
*1592 ANTENNA__1765__CLK
*1593 ANTENNA__1766__CLK
*1594 ANTENNA__1767__CLK
*1595 ANTENNA__1768__CLK
*1596 ANTENNA__1769__CLK
*1597 ANTENNA__1770__CLK
*1598 ANTENNA__1771__CLK
*1599 ANTENNA__1772__CLK
*1600 ANTENNA__1773__CLK
*1601 ANTENNA__1774__CLK
*1602 ANTENNA__1775__CLK
*1603 ANTENNA__1776__CLK
*1604 ANTENNA__1777__CLK
*1605 ANTENNA__1778__CLK
*1606 ANTENNA__1779__CLK
*1607 ANTENNA__1780__CLK
*1608 ANTENNA__1781__CLK
*1609 ANTENNA__1782__CLK
*1610 ANTENNA__1787__CLK
*1611 ANTENNA__1788__CLK
*1612 ANTENNA__1789__CLK
*1613 ANTENNA__1790__CLK
*1614 ANTENNA__1791__CLK
*1615 ANTENNA__1791__D
*1616 ANTENNA__1792__CLK
*1617 ANTENNA__1792__D
*1618 ANTENNA__1793__CLK